Circuit: * Z:\UNC\2022\analogElectronics3\acopleLC.asc


Date: Thu Mar 17 01:56:06 2022
Total elapsed time: 0.032 seconds.

tnom = 27
temp = 27
method = trap
totiter = 0
traniter = 0
tranpoints = 0
accept = 0
rejected = 0
matrix size = 5
fillins = 1
solver = Normal

