Circuit: * Z:\sintesis\Draft1.asc

Laplace(E3): Window=8.0151603s Nfft=16384
Laplace(E2): Window=40µs Nfft=32768
WARNING: Less than two connections to node V1.  This node is used by V4.
WARNING: Less than two connections to node N003.  This node is used by E2.
Direct Newton iteration for .op point succeeded.

Date: Mon Oct 25 23:39:34 2021
Total elapsed time: 1.844 seconds.

tnom = 27
temp = 27
method = modified trap
totiter = 32805
traniter = 32802
tranpoints = 16402
accept = 16402
rejected = 0
matrix size = 36
fillins = 27
solver = Normal
Matrix Compiler1: 2.48 KB object code size  2.8/2.1/[0.9]
Matrix Compiler2: off  [1.1]/1.8/1.5

