Circuit: * Z:\UNC\2022\powerElectronics\TPT4\pwrMos.asc

Direct Newton iteration for .op point succeeded.

t0: time=0.00200059 at 0.00200059
t: time=0.00200079 at 0.00200079
delay: t-t0=2.00999e-007


Date: Fri Apr 08 01:56:00 2022
Total elapsed time: 0.088 seconds.

tnom = 27
temp = 27
method = modified trap
totiter = 2766
traniter = 2733
tranpoints = 1280
accept = 1233
rejected = 47
matrix size = 19
fillins = 4
solver = Normal
Matrix Compiler1: 1.01 KB object code size  1.1/0.8/[0.4]
Matrix Compiler2: off  [0.5]/1.0/2.6

