Circuit: * Z:\UNC\2022\powerElectronics\TPT4\pwrMos.asc

Direct Newton iteration for .op point succeeded.

t0: time=0.001 at 0.001
t1: time=0.00100003 at 0.00100003
t2: time=0.002 at 0.002
t3: time=0.00200011 at 0.00200011
t4: time=0.00100004 at 0.00100004
t5: time=0.00100014 at 0.00100014
t6: time=0.00200007 at 0.00200007
t7: time=0.00200013 at 0.00200013
td(on): t1-t0=2.64928e-008
td(off): t3-t2=1.08336e-007
trr: t5-t4=1.04456e-007
tff: t7-t6=6.14387e-008


Date: Fri Apr 08 14:10:08 2022
Total elapsed time: 0.100 seconds.

tnom = 27
temp = 27
method = modified trap
totiter = 2731
traniter = 2720
tranpoints = 1271
accept = 1227
rejected = 44
matrix size = 20
fillins = 4
solver = Normal
Matrix Compiler1: 1.03 KB object code size  0.8/0.6/[0.3]
Matrix Compiler2: off  [0.4]/0.7/1.2

