Circuit: * Z:\sintesis\lab2\c1ASumador.asc

WARNING: Less than two connections to node VOT.  This node is used by V5.
WARNING: Less than two connections to node N003.  This node is used by Q:U1:2.
Direct Newton iteration for .op point succeeded.
.step i=0
.step i=1
.step i=2

Date: Thu Nov 11 20:25:35 2021
Total elapsed time: 0.515 seconds.

tnom = 27
temp = 27
method = modified trap
totiter = 2403
traniter = 2383
tranpoints = 1085
accept = 1055
rejected = 30
matrix size = 54
fillins = 54
solver = Normal
Matrix Compiler1: 4.87 KB object code size  2.7/1.8/[0.7]
Matrix Compiler2: off  [1.1]/1.8/6.5

