Circuit: * Z:\sintesis\lab2\c1BSumador.asc

Direct Newton iteration for .op point succeeded.
Semiconductor Device Operating Points:
                        --- Diodes ---
Name:    d:u1:oi
Model:   u1:lim
Id:      8.04e-06
Vd:      8.04e-09
Req:     1.00e+03
CAP:     0.00e+00



Date: Mon Nov 08 20:32:37 2021
Total elapsed time: 0.064 seconds.

tnom = 27
temp = 27
method = trap
totiter = 3
traniter = 0
tranpoints = 0
accept = 0
rejected = 0
matrix size = 28
fillins = 11
solver = Normal
Matrix Compiler1: 1.78 KB object code size
Matrix Compiler2: 2.31 KB object code size
