Circuit: * Z:\home\cliff\Desktop\cosas\industrial\Draft2.asc

Limiting rise time of source v2 to 1e-006
Limiting fall time of source v2 to 1e-006
WARNING: Node NC_02 is floating.
WARNING: Node NC_03 is floating.
WARNING: Node NC_04 is floating.

WARNING: Less than two connections to node NC_01.  This node is used by S1.
WARNING: Less than two connections to node NC_02.  This node is used by S1.
WARNING: Less than two connections to node NC_03.  This node is used by S1.
WARNING: Less than two connections to node NC_04.  This node is used by S1.
Direct Newton iteration for .op point succeeded.
Heightened Def Con from 1.24201e-006 +to 1.24401e-006
Heightened Def Con from 1.24401e-006 to 1.24501e-006
Heightened Def Con from 1.24777e-006 to 1.24877e-006
Heightened Def Con from 1.24877e-006 to 1.24977e-006
Heightened Def Con from 1.24977e-006 to 1.25077e-006
Heightened Def Con from 1.25193e-006 to 1.25293e-006
Heightened Def Con from 1.25416e-006 to 1.25516e-006
Heightened Def Con from 1.25516e-006 to 1.25616e-006
Heightened Def Con from 1.25616e-006 to 1.25716e-006
Heightened Def Con from 1.25716e-006 to 1.25816e-006
Heightened Def Con from 1.25816e-006 to 1.25916e-006
Heightened Def Con from 1.26184e-006 to 1.26284e-006
Heightened Def Con from 1.26284e-006 +to 1.26484e-006
Heightened Def Con from 1.26484e-006 to 1.26584e-006
Heightened Def Con from 1.26584e-006 +to 1.26784e-006
Heightened Def Con from 1.27046e-006 to 1.27146e-006
Heightened Def Con from 1.27146e-006 +to 1.27346e-006
Heightened Def Con from 2.02779e-005 to 2.02779e-005
Heightened Def Con from 2.02779e-005 ++to 2.02779e-005
Heightened Def Con from 2.02779e-005 +++to 2.02779e-005
Heightened Def Con from 2.02779e-005 to 2.02779e-005
Heightened Def Con from 2.02779e-005 to 2.02779e-005
Heightened Def Con from 2.02779e-005 to 2.02779e-005
Heightened Def Con from 2.02779e-005 +to 2.02779e-005
Heightened Def Con from 2.02779e-005 to 2.02779e-005
Heightened Def Con from 2.02779e-005 to 2.02779e-005
Heightened Def Con from 2.02779e-005 to 2.02779e-005
Heightened Def Con from 2.02779e-005 to 2.02779e-005
Heightened Def Con from 2.02779e-005 to 2.02779e-005
Heightened Def Con from 2.02779e-005 to 2.02779e-005
Heightened Def Con from 2.02779e-005 to 2.02779e-005
Heightened Def Con from 2.02779e-005 to 2.02779e-005
Heightened Def Con from 2.02779e-005 to 2.02779e-005
Heightened Def Con from 2.02779e-005 to 2.02779e-005
Heightened Def Con from 2.02779e-005 to 2.02779e-005
Heightened Def Con from 2.02779e-005 to 2.02779e-005
Heightened Def Con from 2.02779e-005 to 2.02779e-005
Heightened Def Con from 2.02779e-005 to 2.02779e-005
Heightened Def Con from 2.02779e-005 to 2.02779e-005
Heightened Def Con from 2.02779e-005 to 2.02779e-005
Heightened Def Con from 2.02779e-005 to 2.02779e-005
Heightened Def Con from 2.02779e-005 to 2.02779e-005
Heightened Def Con from 2.02779e-005 to 2.02779e-005
Heightened Def Con from 2.02779e-005 to 2.02779e-005
Heightened Def Con from 2.02779e-005 to 2.02779e-005
Heightened Def Con from 2.02779e-005 to 2.02779e-005
Heightened Def Con from 2.02779e-005 to 2.02779e-005
Heightened Def Con from 2.02779e-005 to 2.02779e-005
Heightened Def Con from 2.02779e-005 to 2.02779e-005
Heightened Def Con from 2.02779e-005 to 2.02779e-005
Heightened Def Con from 2.02779e-005 to 2.02779e-005
Heightened Def Con from 2.02779e-005 to 2.02779e-005
Heightened Def Con from 2.02779e-005 to 2.02779e-005
Heightened Def Con from 2.02779e-005 to 2.02779e-005
Heightened Def Con from 2.02779e-005 to 2.02779e-005
Heightened Def Con from 2.02779e-005 to 2.02779e-005
Heightened Def Con from 2.02779e-005 to 2.02779e-005
Heightened Def Con from 2.02779e-005 to 2.02779e-005
Heightened Def Con from 2.02779e-005 to 2.02779e-005
Heightened Def Con from 2.02779e-005 to 2.02779e-005
Heightened Def Con from 2.02779e-005 to 2.02779e-005
Heightened Def Con from 2.02779e-005 to 2.02779e-005
Heightened Def Con from 2.02779e-005 to 2.02779e-005
Heightened Def Con from 2.02779e-005 to 2.02779e-005
Heightened Def Con from 2.02779e-005 to 2.02779e-005
Heightened Def Con from 2.02779e-005 to 2.02779e-005
Heightened Def Con from 2.02779e-005 to 2.02779e-005
Heightened Def Con from 2.02779e-005 to 2.02779e-005
Heightened Def Con from 2.02779e-005 to 2.02779e-005
Heightened Def Con from 2.02779e-005 to 2.02779e-005
Heightened Def Con from 2.02779e-005 to 2.02779e-005
Heightened Def Con from 2.02779e-005 to 2.02779e-005
Heightened Def Con from 2.02779e-005 to 2.02779e-005
Heightened Def Con from 2.02779e-005 to 2.02779e-005
Heightened Def Con from 2.02779e-005 to 2.02779e-005
Heightened Def Con from 2.02779e-005 to 2.02779e-005
Heightened Def Con from 2.02779e-005 to 2.02779e-005
Heightened Def Con from 2.02779e-005 to 2.02779e-005
Heightened Def Con from 2.02779e-005 to 2.02779e-005
Heightened Def Con from 2.02779e-005 to 2.02779e-005
Heightened Def Con from 2.02779e-005 to 2.02779e-005
Heightened Def Con from 2.02779e-005 to 2.02779e-005
Heightened Def Con from 2.02779e-005 to 2.02779e-005
Heightened Def Con from 2.02779e-005 to 2.02779e-005
Heightened Def Con from 2.02779e-005 to 2.02779e-005
Heightened Def Con from 2.02779e-005 +to 2.02779e-005
Heightened Def Con from 2.02779e-005 to 2.02779e-005
Heightened Def Con from 2.02779e-005 to 2.02779e-005
Heightened Def Con from 2.02779e-005 to 2.02779e-005
Heightened Def Con from 2.02779e-005 to 2.02779e-005
Heightened Def Con from 2.02779e-005 to 2.02779e-005
Heightened Def Con from 2.02779e-005 to 2.02779e-005
Heightened Def Con from 2.02779e-005 to 2.02779e-005
Heightened Def Con from 2.02779e-005 to 2.02779e-005
Heightened Def Con from 2.02779e-005 to 2.02779e-005
Heightened Def Con from 2.02779e-005 to 2.02779e-005
Heightened Def Con from 2.02779e-005 to 2.02779e-005
Heightened Def Con from 2.02779e-005 to 2.02779e-005
Heightened Def Con from 2.02779e-005 to 2.02779e-005
Heightened Def Con from 2.02779e-005 to 2.02779e-005
Heightened Def Con from 2.02779e-005 to 2.02779e-005
Heightened Def Con from 2.02779e-005 to 2.02779e-005
Heightened Def Con from 2.02779e-005 to 2.02779e-005
Heightened Def Con from 2.02779e-005 to 2.02779e-005
Heightened Def Con from 2.02779e-005 to 2.02779e-005
Heightened Def Con from 2.02779e-005 ++to 2.02779e-005
Heightened Def Con from 2.02779e-005 +to 2.02779e-005
Heightened Def Con from 2.02779e-005 +to 2.02779e-005
Heightened Def Con from 2.02779e-005 to 2.02779e-005
Heightened Def Con from 2.02779e-005 to 2.02779e-005
Heightened Def Con from 2.02779e-005 +to 2.02779e-005
Heightened Def Con from 2.02779e-005 ++to 2.02779e-005
Heightened Def Con from 2.02779e-005 to 2.02779e-005
Heightened Def Con from 2.02779e-005 +to 2.02779e-005
Heightened Def Con from 2.02779e-005 ++to 2.02779e-005
Heightened Def Con from 2.02779e-005 to 2.02779e-005
Heightened Def Con from 2.02779e-005 +++to 2.02779e-005
Heightened Def Con from 2.02779e-005 +to 2.02779e-005
Heightened Def Con from 2.02779e-005 +++to 2.02779e-005
Heightened Def Con from 2.02779e-005 +++to 2.02779e-005
Heightened Def Con from 2.02779e-005 ++++to 2.02779e-005
Heightened Def Con from 2.02779e-005 +to 2.02779e-005
Heightened Def Con from 2.02779e-005 +to 2.02779e-005
Heightened Def Con from 2.02779e-005 to 2.02779e-005
Heightened Def Con from 2.02779e-005 +++to 2.02779e-005
Heightened Def Con from 2.02779e-005 +++to 2.02779e-005
Heightened Def Con from 2.02779e-005 +to 2.02779e-005
Heightened Def Con from 2.02779e-005 to 2.02779e-005
Heightened Def Con from 2.02779e-005 to 2.02779e-005
Heightened Def Con from 2.02779e-005 ++to 2.02779e-005
Heightened Def Con from 2.02779e-005 +to 2.02779e-005
Heightened Def Con from 2.02779e-005 ++to 2.02779e-005
Heightened Def Con from 2.02779e-005 +to 2.02779e-005
Heightened Def Con from 2.02779e-005 +++to 2.02779e-005
Heightened Def Con from 2.02779e-005 +to 2.02779e-005
Heightened Def Con from 2.02779e-005 ++to 2.02779e-005
Heightened Def Con from 2.02779e-005 ++to 2.02779e-005
Heightened Def Con from 2.02779e-005 +to 2.02779e-005
Heightened Def Con from 2.02779e-005 +to 2.02779e-005
Heightened Def Con from 2.02779e-005 +++to 2.02779e-005
Heightened Def Con from 2.02779e-005 +++to 2.02779e-005
Heightened Def Con from 2.02779e-005 +to 2.02779e-005
Heightened Def Con from 2.02779e-005 ++++to 2.02779e-005
Heightened Def Con from 2.02779e-005 +++to 2.02779e-005
Heightened Def Con from 2.02779e-005 ++to 2.02779e-005
Heightened Def Con from 2.02779e-005 ++to 2.02779e-005
Heightened Def Con from 2.02779e-005 +++to 2.02779e-005
Heightened Def Con from 2.02779e-005 +++to 2.02779e-005
Heightened Def Con from 2.02779e-005 +++to 2.02779e-005
Heightened Def Con from 2.02779e-005 +++to 2.02779e-005
Heightened Def Con from 2.02779e-005 ++to 2.02779e-005
Heightened Def Con from 2.02779e-005 ++++to 2.02779e-005
Heightened Def Con from 2.02779e-005 ++to 2.02779e-005
Heightened Def Con from 2.02779e-005 +++to 2.02779e-005
Heightened Def Con from 2.02779e-005 +++to 2.02779e-005
Heightened Def Con from 2.02779e-005 ++to 2.02779e-005
Heightened Def Con from 2.02779e-005 ++to 2.02779e-005
Heightened Def Con from 2.02779e-005 +++to 2.02779e-005
Heightened Def Con from 2.02779e-005 +++to 2.02779e-005
Heightened Def Con from 2.02779e-005 ++++to 2.02779e-005
Heightened Def Con from 2.02779e-005 ++to 2.02779e-005
Heightened Def Con from 2.02779e-005 +++to 2.02779e-005
Heightened Def Con from 2.02779e-005 ++to 2.02779e-005
Heightened Def Con from 2.02779e-005 +++++to 2.02779e-005
Heightened Def Con from 2.02779e-005 +++to 2.02779e-005
Heightened Def Con from 2.02779e-005 ++++to 2.02779e-005
Heightened Def Con from 2.02779e-005 ++++to 2.02779e-005
Heightened Def Con from 2.02779e-005 ++++to 2.02779e-005
Heightened Def Con from 2.02779e-005 +++to 2.02779e-005
Heightened Def Con from 2.02779e-005 ++++to 2.02779e-005
Heightened Def Con from 2.02779e-005 ++to 2.02779e-005
Heightened Def Con from 2.02779e-005 +++to 2.02779e-005
Heightened Def Con from 2.02779e-005 +++to 2.02779e-005
Heightened Def Con from 2.02779e-005 ++++to 2.02779e-005
Heightened Def Con from 2.02779e-005 +++to 2.02779e-005
Heightened Def Con from 2.02779e-005 ++++to 2.02779e-005
Heightened Def Con from 2.02779e-005 +++to 2.02779e-005
Heightened Def Con from 2.02779e-005 +++to 2.02779e-005
Heightened Def Con from 2.02779e-005 ++++to 2.02779e-005
Heightened Def Con from 2.02779e-005 ++++to 2.02779e-005
Heightened Def Con from 2.02779e-005 ++++to 2.02779e-005
Heightened Def Con from 2.02779e-005 ++++to 2.02779e-005
Heightened Def Con from 2.02779e-005 ++++to 2.02779e-005
Heightened Def Con from 2.02779e-005 ++++to 2.02779e-005
Heightened Def Con from 2.02779e-005 ++++to 2.02779e-005
Heightened Def Con from 2.02779e-005 +++++to 2.02779e-005
Heightened Def Con from 2.02779e-005 ++++to 2.02779e-005
Heightened Def Con from 2.02779e-005 +++to 2.02779e-005
Heightened Def Con from 2.02779e-005 ++++to 2.02779e-005
Heightened Def Con from 2.02779e-005 ++++to 2.02779e-005
Heightened Def Con from 2.02779e-005 ++++to 2.02779e-005
Heightened Def Con from 2.02779e-005 +++to 2.02779e-005
Heightened Def Con from 2.02779e-005 +++to 2.02779e-005
Heightened Def Con from 2.02779e-005 ++++to 2.02779e-005
Heightened Def Con from 2.02779e-005 +++++to 2.02779e-005
Heightened Def Con from 2.02779e-005 +++to 2.02779e-005
Heightened Def Con from 2.02779e-005 +++to 2.02779e-005
Heightened Def Con from 2.02779e-005 +++to 2.02779e-005
Heightened Def Con from 2.02779e-005 ++++to 2.02779e-005
Heightened Def Con from 2.02779e-005 ++++to 2.02779e-005
Heightened Def Con from 2.02779e-005 ++++to 2.02779e-005
Heightened Def Con from 2.02779e-005 ++++to 2.02779e-005
Heightened Def Con from 2.02779e-005 ++++++to 2.02779e-005
Heightened Def Con from 2.02779e-005 ++++to 2.02779e-005
Heightened Def Con from 2.02779e-005 +++to 2.02779e-005
Heightened Def Con from 2.02779e-005 ++++to 2.02779e-005
Heightened Def Con from 2.02779e-005 ++++to 2.02779e-005
Heightened Def Con from 2.02779e-005 ++++to 2.02779e-005
Heightened Def Con from 2.02779e-005 +++++to 2.02779e-005
Heightened Def Con from 2.02779e-005 ++++to 2.02779e-005
Heightened Def Con from 2.02779e-005 +++to 2.02779e-005
Heightened Def Con from 2.02779e-005 ++++to 2.02779e-005
Heightened Def Con from 2.02779e-005 +++to 2.02779e-005
Heightened Def Con from 2.02779e-005 ++++to 2.02779e-005
Heightened Def Con from 2.02779e-005 +++to 2.02779e-005
Heightened Def Con from 2.02779e-005 +++to 2.02779e-005
Heightened Def Con from 2.02779e-005 +++to 2.02779e-005
Heightened Def Con from 2.02779e-005 ++++to 2.02779e-005
Heightened Def Con from 2.02779e-005 ++++to 2.02779e-005
Heightened Def Con from 2.02779e-005 +++++to 2.02779e-005
Heightened Def Con from 2.02779e-005 ++++to 2.02779e-005
Heightened Def Con from 2.02779e-005 +++to 2.02779e-005
Heightened Def Con from 2.02779e-005 ++++to 2.02779e-005
Heightened Def Con from 2.02779e-005 ++++to 2.02779e-005
Heightened Def Con from 2.02779e-005 ++++to 2.02779e-005
Heightened Def Con from 2.02779e-005 ++++to 2.02779e-005
Heightened Def Con from 2.02779e-005 ++++to 2.02779e-005
Heightened Def Con from 2.02779e-005 ++++to 2.02779e-005
Heightened Def Con from 2.02779e-005 ++++to 2.02779e-005
Heightened Def Con from 2.02779e-005 ++++to 2.02779e-005
Heightened Def Con from 2.02779e-005 ++++to 2.02779e-005
Heightened Def Con from 2.02779e-005 ++++to 2.02779e-005
Heightened Def Con from 2.02779e-005 ++++to 2.02779e-005
Heightened Def Con from 2.02779e-005 ++++to 2.02779e-005
Heightened Def Con from 2.02779e-005 ++++to 2.02779e-005
Heightened Def Con from 2.02779e-005 +++++to 2.02779e-005
Heightened Def Con from 2.02779e-005 ++++to 2.02779e-005
Heightened Def Con from 2.02779e-005 ++++to 2.02779e-005
Heightened Def Con from 2.02779e-005 ++++to 2.02779e-005
Heightened Def Con from 2.02779e-005 ++++to 2.02779e-005
Heightened Def Con from 2.02779e-005 ++++to 2.02779e-005
Heightened Def Con from 2.02779e-005 ++++to 2.02779e-005
Heightened Def Con from 2.02779e-005 ++++to 2.02779e-005
Heightened Def Con from 2.02779e-005 ++++to 2.02779e-005
Heightened Def Con from 2.02779e-005 ++++to 2.02779e-005
Heightened Def Con from 2.02779e-005 ++++to 2.02779e-005
Heightened Def Con from 2.02779e-005 ++++++to 2.02779e-005
Heightened Def Con from 2.02779e-005 ++++to 2.02779e-005
Heightened Def Con from 2.02779e-005 ++++to 2.02779e-005
Heightened Def Con from 2.02779e-005 +++++to 2.02779e-005
Heightened Def Con from 2.02779e-005 ++++to 2.02779e-005
Heightened Def Con from 2.02779e-005 ++++to 2.02779e-005
Heightened Def Con from 2.02779e-005 ++++to 2.02779e-005
Heightened Def Con from 2.02779e-005 ++++to 2.02779e-005
Heightened Def Con from 2.02779e-005 ++++to 2.02779e-005
Heightened Def Con from 2.02779e-005 +++++to 2.02779e-005
Heightened Def Con from 2.02779e-005 ++++to 2.02779e-005
Heightened Def Con from 2.02779e-005 ++++to 2.02779e-005
Heightened Def Con from 2.02779e-005 ++++to 2.02779e-005
Heightened Def Con from 2.02779e-005 +++++to 2.02779e-005
Heightened Def Con from 2.02779e-005 ++++to 2.02779e-005
Heightened Def Con from 2.02779e-005 ++++to 2.02779e-005
Heightened Def Con from 2.02779e-005 ++++to 2.02779e-005
Heightened Def Con from 2.02779e-005 ++++to 2.02779e-005
Heightened Def Con from 2.02779e-005 ++++to 2.02779e-005
Heightened Def Con from 2.02779e-005 ++++to 2.02779e-005
Heightened Def Con from 2.02779e-005 ++++to 2.02779e-005
Heightened Def Con from 2.02779e-005 ++++to 2.02779e-005
Heightened Def Con from 2.02779e-005 ++++to 2.02779e-005
Heightened Def Con from 2.02779e-005 ++++to 2.02779e-005
Heightened Def Con from 2.02779e-005 +++++to 2.02779e-005
Heightened Def Con from 2.02779e-005 +++++to 2.02779e-005
Heightened Def Con from 2.02779e-005 +++++to 2.02779e-005
Heightened Def Con from 2.02779e-005 +++++to 2.02779e-005
Heightened Def Con from 2.02779e-005 ++++to 2.02779e-005
Heightened Def Con from 2.02779e-005 +++++to 2.02779e-005
Heightened Def Con from 2.02779e-005 ++++++to 2.02779e-005
Heightened Def Con from 2.02779e-005 +++++to 2.02779e-005
Heightened Def Con from 2.02779e-005 ++++to 2.02779e-005
Heightened Def Con from 2.02779e-005 ++++to 2.02779e-005
Heightened Def Con from 2.02779e-005 +++++to 2.02779e-005
Heightened Def Con from 2.02779e-005 ++++to 2.02779e-005
Heightened Def Con from 2.02779e-005 ++++to 2.02779e-005
Heightened Def Con from 2.02779e-005 ++++to 2.02779e-005
Heightened Def Con from 2.02779e-005 +++++to 2.02779e-005
Heightened Def Con from 2.02779e-005 +++++to 2.02779e-005
Heightened Def Con from 2.02779e-005 ++++to 2.02779e-005
Heightened Def Con from 2.02779e-005 ++++to 2.02779e-005
Heightened Def Con from 2.02779e-005 ++++to 2.02779e-005
Heightened Def Con from 2.02779e-005 +++++to 2.02779e-005
Heightened Def Con from 2.02779e-005 +++++to 2.02779e-005
Heightened Def Con from 2.02779e-005 ++++++to 2.02779e-005
Heightened Def Con from 2.02779e-005 ++++to 2.02779e-005
Heightened Def Con from 2.02779e-005 ++++to 2.02779e-005
Heightened Def Con from 2.02779e-005 +++++to 2.02779e-005
Heightened Def Con from 2.02779e-005 ++++to 2.02779e-005
Heightened Def Con from 2.02779e-005 +++++to 2.02779e-005
Heightened Def Con from 2.02779e-005 +++++to 2.02779e-005
Heightened Def Con from 2.02779e-005 +++++to 2.02779e-005
Heightened Def Con from 2.02779e-005 ++++to 2.02779e-005
Heightened Def Con from 2.02779e-005 ++++to 2.02779e-005
Heightened Def Con from 2.02779e-005 +++++to 2.02779e-005
Heightened Def Con from 2.02779e-005 ++++++to 2.02779e-005
Heightened Def Con from 2.02779e-005 ++++to 2.02779e-005
Heightened Def Con from 2.02779e-005 ++++to 2.02779e-005
Heightened Def Con from 2.02779e-005 +++++to 2.02779e-005
Heightened Def Con from 2.02779e-005 +++++to 2.02779e-005
Heightened Def Con from 2.02779e-005 ++++to 2.02779e-005
Heightened Def Con from 2.02779e-005 +++++to 2.02779e-005
Heightened Def Con from 2.02779e-005 ++++to 2.02779e-005
Heightened Def Con from 2.02779e-005 +++++to 2.02779e-005
Heightened Def Con from 2.02779e-005 +++++to 2.02779e-005
Heightened Def Con from 2.02779e-005 +++++to 2.02779e-005
Heightened Def Con from 2.02779e-005 ++++++to 2.02779e-005
Heightened Def Con from 2.02779e-005 ++++to 2.02779e-005
Heightened Def Con from 2.02779e-005 ++++to 2.02779e-005
Heightened Def Con from 2.02779e-005 +++++to 2.02779e-005
Heightened Def Con from 2.02779e-005 ++++to 2.02779e-005
Heightened Def Con from 2.02779e-005 ++++++to 2.02779e-005
Heightened Def Con from 2.02779e-005 ++++to 2.02779e-005
Heightened Def Con from 2.02779e-005 ++++to 2.02779e-005
Heightened Def Con from 2.02779e-005 ++++to 2.02779e-005
Heightened Def Con from 2.02779e-005 +++++to 2.02779e-005
Heightened Def Con from 2.02779e-005 +++++to 2.02779e-005
Heightened Def Con from 2.02779e-005 +++++to 2.02779e-005
Heightened Def Con from 2.02779e-005 ++++to 2.02779e-005
Heightened Def Con from 2.02779e-005 ++++to 2.02779e-005
Heightened Def Con from 2.02779e-005 +++++to 2.02779e-005
Heightened Def Con from 2.02779e-005 +++++to 2.02779e-005
Heightened Def Con from 2.02779e-005 ++++++to 2.02779e-005
Heightened Def Con from 2.02779e-005 +++++to 2.02779e-005
Heightened Def Con from 2.02779e-005 +++++to 2.02779e-005
Heightened Def Con from 2.02779e-005 +++++to 2.02779e-005
Heightened Def Con from 2.02779e-005 +++++to 2.02779e-005
Heightened Def Con from 2.02779e-005 ++++++to 2.02779e-005
Heightened Def Con from 2.02779e-005 +++++to 2.02779e-005
Heightened Def Con from 2.02779e-005 +++++to 2.02779e-005
Heightened Def Con from 2.02779e-005 +++++to 2.02779e-005
Heightened Def Con from 2.02779e-005 +++++to 2.02779e-005
Heightened Def Con from 2.02779e-005 +++++to 2.02779e-005
Heightened Def Con from 2.02779e-005 +++++to 2.02779e-005
Heightened Def Con from 2.02779e-005 +++++to 2.02779e-005
Heightened Def Con from 2.02779e-005 +++++to 2.02779e-005
Heightened Def Con from 2.02779e-005 +++++to 2.02779e-005
Heightened Def Con from 2.02779e-005 +++++to 2.02779e-005
Heightened Def Con from 2.02779e-005 ++++++to 2.02779e-005
Heightened Def Con from 2.02779e-005 +++++to 2.02779e-005
Heightened Def Con from 2.02779e-005 +++++to 2.02779e-005
Heightened Def Con from 2.02779e-005 ++++++to 2.02779e-005
Heightened Def Con from 2.02779e-005 ++++++to 2.02779e-005
Heightened Def Con from 2.02779e-005 ++++++to 2.02779e-005
Heightened Def Con from 2.02779e-005 +++++to 2.02779e-005
Heightened Def Con from 2.02779e-005 +++++to 2.02779e-005
Heightened Def Con from 2.02779e-005 +++++to 2.02779e-005
Heightened Def Con from 2.02779e-005 ++++++to 2.02779e-005
Heightened Def Con from 2.02779e-005 +++++to 2.02779e-005
Heightened Def Con from 2.02779e-005 +++++to 2.02779e-005
Heightened Def Con from 2.02779e-005 +++++to 2.02779e-005
Heightened Def Con from 2.02779e-005 +++++to 2.02779e-005
Heightened Def Con from 2.02779e-005 +++++to 2.02779e-005
Heightened Def Con from 2.02779e-005 +++++to 2.02779e-005
Heightened Def Con from 2.02779e-005 +++++to 2.02779e-005
Heightened Def Con from 2.02779e-005 +++++to 2.02779e-005
Heightened Def Con from 2.02779e-005 +++++to 2.02779e-005
Heightened Def Con from 2.02779e-005 +++++to 2.02779e-005
Heightened Def Con from 2.02779e-005 ++++++to 2.02779e-005
Heightened Def Con from 2.02779e-005 +++++to 2.02779e-005
Heightened Def Con from 2.02779e-005 +++++to 2.02779e-005
Heightened Def Con from 2.02779e-005 +++++to 2.02779e-005
Heightened Def Con from 2.02779e-005 +++++to 2.02779e-005
Heightened Def Con from 2.02779e-005 +++++to 2.02779e-005
Heightened Def Con from 2.02779e-005 +++++to 2.02779e-005
Heightened Def Con from 2.02779e-005 +++++to 2.02779e-005
Heightened Def Con from 2.02779e-005 +++++to 2.02779e-005
Heightened Def Con from 2.02779e-005 +++++to 2.02779e-005
Heightened Def Con from 2.02779e-005 +++++to 2.02779e-005
Heightened Def Con from 2.02779e-005 +++++to 2.02779e-005
Heightened Def Con from 2.02779e-005 +++++to 2.02779e-005
Heightened Def Con from 2.02779e-005 +++++to 2.02779e-005
Heightened Def Con from 2.02779e-005 +++++to 2.02779e-005
Heightened Def Con from 2.02779e-005 +++++to 2.02779e-005
Heightened Def Con from 2.02779e-005 +++++to 2.02779e-005
Heightened Def Con from 2.02779e-005 +++++to 2.02779e-005
Heightened Def Con from 2.02779e-005 +++++to 2.02779e-005
Heightened Def Con from 2.02779e-005 +++++to 2.02779e-005
Heightened Def Con from 2.02779e-005 +++++to 2.02779e-005
Heightened Def Con from 2.02779e-005 +++++to 2.02779e-005
Heightened Def Con from 2.02779e-005 +++++to 2.02779e-005
Heightened Def Con from 2.02779e-005 ++++++to 2.02779e-005
Heightened Def Con from 2.02779e-005 +++++to 2.02779e-005
Heightened Def Con from 2.02779e-005 +++++to 2.02779e-005
Heightened Def Con from 2.02779e-005 +++++to 2.02779e-005
Heightened Def Con from 2.02779e-005 +++++to 2.02779e-005
Heightened Def Con from 2.02779e-005 +++++to 2.02779e-005
Heightened Def Con from 2.02779e-005 +++++to 2.02779e-005
Heightened Def Con from 2.02779e-005 +++++to 2.02779e-005
Heightened Def Con from 2.02779e-005 +++++to 2.02779e-005
Heightened Def Con from 2.02779e-005 +++++to 2.02779e-005
Heightened Def Con from 2.02779e-005 +++++to 2.02779e-005
Heightened Def Con from 2.02779e-005 +++++to 2.02779e-005
Heightened Def Con from 2.02779e-005 +++++to 2.02779e-005
Heightened Def Con from 2.02779e-005 +++++to 2.02779e-005
Heightened Def Con from 2.02779e-005 +++++to 2.02779e-005
Heightened Def Con from 2.02779e-005 +++++to 2.02779e-005
Heightened Def Con from 2.02779e-005 +++++to 2.02779e-005
Heightened Def Con from 2.02779e-005 +++++to 2.02779e-005
Heightened Def Con from 2.02779e-005 +++++to 2.02779e-005
Heightened Def Con from 2.02779e-005 ++++++to 2.02779e-005
Heightened Def Con from 2.02779e-005 +++++to 2.02779e-005
Heightened Def Con from 2.02779e-005 +++++to 2.02779e-005
Heightened Def Con from 2.02779e-005 +++++to 2.02779e-005
Heightened Def Con from 2.02779e-005 +++++to 2.02779e-005
Heightened Def Con from 2.02779e-005 +++++to 2.02779e-005
Heightened Def Con from 2.02779e-005 +++++to 2.02779e-005
Heightened Def Con from 2.02779e-005 +++++to 2.02779e-005
Heightened Def Con from 2.02779e-005 +++++to 2.02779e-005
Heightened Def Con from 2.02779e-005 +++++to 2.02779e-005
Heightened Def Con from 2.02779e-005 +++++to 2.02779e-005
Heightened Def Con from 2.02779e-005 +++++to 2.02779e-005
Heightened Def Con from 2.02779e-005 +++++to 2.02779e-005
Heightened Def Con from 2.02779e-005 +++++to 2.02779e-005
Heightened Def Con from 2.02779e-005 ++++++to 2.02779e-005
Heightened Def Con from 2.02779e-005 +++++to 2.02779e-005
Heightened Def Con from 2.02779e-005 +++++to 2.02779e-005
Heightened Def Con from 2.02779e-005 +++++to 2.02779e-005
Heightened Def Con from 2.02779e-005 +++++to 2.02779e-005
Heightened Def Con from 2.02779e-005 +++++to 2.02779e-005
Heightened Def Con from 2.02779e-005 +++++to 2.02779e-005
Heightened Def Con from 2.02779e-005 ++++++to 2.02779e-005
Heightened Def Con from 2.02779e-005 +++++to 2.02779e-005
Heightened Def Con from 2.02779e-005 ++++++to 2.02779e-005
Heightened Def Con from 2.02779e-005 +++++to 2.02779e-005
Heightened Def Con from 2.02779e-005 +++++to 2.02779e-005
Heightened Def Con from 2.02779e-005 +++++to 2.02779e-005
Heightened Def Con from 2.02779e-005 +++++to 2.02779e-005
Heightened Def Con from 2.02779e-005 +++++to 2.02779e-005
Heightened Def Con from 2.02779e-005 +++++to 2.02779e-005
Heightened Def Con from 2.02779e-005 ++++++to 2.02779e-005
Heightened Def Con from 2.02779e-005 +++++to 2.02779e-005
Heightened Def Con from 2.02779e-005 +++++to 2.02779e-005
Heightened Def Con from 2.02779e-005 +++++to 2.02779e-005
Heightened Def Con from 2.02779e-005 +++++to 2.02779e-005
Heightened Def Con from 2.02779e-005 +++++to 2.02779e-005
Heightened Def Con from 2.02779e-005 +++++to 2.02779e-005
Heightened Def Con from 2.02779e-005 ++++++to 2.02779e-005
Heightened Def Con from 2.02779e-005 +++++to 2.02779e-005
Heightened Def Con from 2.02779e-005 +++++to 2.02779e-005
Heightened Def Con from 2.02779e-005 +++++to 2.02779e-005
Heightened Def Con from 2.02779e-005 +++++to 2.02779e-005
Heightened Def Con from 2.02779e-005 +++++to 2.02779e-005
Heightened Def Con from 2.02779e-005 +++++to 2.02779e-005
Heightened Def Con from 2.02779e-005 +++++to 2.02779e-005
Heightened Def Con from 2.02779e-005 +++++to 2.02779e-005
Heightened Def Con from 2.02779e-005 +++++to 2.02779e-005
Heightened Def Con from 2.02779e-005 +++++to 2.02779e-005
Heightened Def Con from 2.02779e-005 +++++to 2.02779e-005
Heightened Def Con from 2.02779e-005 +++++to 2.02779e-005
Heightened Def Con from 2.02779e-005 +++++to 2.02779e-005
Heightened Def Con from 2.02779e-005 +++++to 2.02779e-005
Heightened Def Con from 2.02779e-005 +++++to 2.02779e-005
Heightened Def Con from 2.02779e-005 ++++++to 2.02779e-005
Heightened Def Con from 2.02779e-005 +++++to 2.02779e-005
Heightened Def Con from 2.02779e-005 +++++to 2.02779e-005
Heightened Def Con from 2.02779e-005 +++++to 2.02779e-005
Heightened Def Con from 2.02779e-005 +++++to 2.02779e-005
Heightened Def Con from 2.02779e-005 +++++to 2.02779e-005
Heightened Def Con from 2.02779e-005 +++++++to 2.02779e-005
Heightened Def Con from 2.02779e-005 +++++++to 2.02779e-005
Heightened Def Con from 2.02779e-005 +++++++to 2.02779e-005
Heightened Def Con from 2.02779e-005 +++++++to 2.02779e-005
Heightened Def Con from 2.02779e-005 +++++++to 2.02779e-005
Heightened Def Con from 0.000111712 to 0.000111712
Heightened Def Con from 0.000111712 +to 0.000111712
Heightened Def Con from 0.000111712 ++to 0.000111712
Heightened Def Con from 0.000111712 ++to 0.000111712
Heightened Def Con from 0.000111712 ++to 0.000111712
Heightened Def Con from 0.000111712 ++to 0.000111712
Heightened Def Con from 0.000111712 ++to 0.000111712
Heightened Def Con from 0.000111712 ++to 0.000111712
Heightened Def Con from 0.000111712 ++to 0.000111712
Heightened Def Con from 0.000111712 ++to 0.000111712
Heightened Def Con from 0.000111712 ++to 0.000111712
Heightened Def Con from 0.000111712 +++to 0.000111712
Heightened Def Con from 0.000111712 +++to 0.000111712
Heightened Def Con from 0.000111712 +++to 0.000111712
Heightened Def Con from 0.000111712 +++to 0.000111712
Heightened Def Con from 0.000111712 +++to 0.000111712
Heightened Def Con from 0.000111712 ++++to 0.000111712
Heightened Def Con from 0.000111712 ++++to 0.000111712
Heightened Def Con from 0.000111712 ++++to 0.000111712
Heightened Def Con from 0.000111712 ++++to 0.000111712
Heightened Def Con from 0.000111712 ++++to 0.000111712
Heightened Def Con from 0.000111712 ++++to 0.000111712
Heightened Def Con from 0.000111712 ++++to 0.000111712
Heightened Def Con from 0.000111712 ++++to 0.000111712
Heightened Def Con from 0.000111712 ++++to 0.000111712
Heightened Def Con from 0.000111712 ++++to 0.000111712
Heightened Def Con from 0.000111712 ++++to 0.000111712
Heightened Def Con from 0.000111712 ++++to 0.000111712
Heightened Def Con from 0.000111712 ++++to 0.000111712
Heightened Def Con from 0.000111712 ++++to 0.000111712
Heightened Def Con from 0.000111712 ++++to 0.000111712
Heightened Def Con from 0.000111712 ++++to 0.000111712
Heightened Def Con from 0.000111712 ++++to 0.000111712
Heightened Def Con from 0.000111712 ++++to 0.000111712
Heightened Def Con from 0.000111712 ++++to 0.000111712
Heightened Def Con from 0.000111712 ++++to 0.000111712
Heightened Def Con from 0.000111712 ++++to 0.000111712
Heightened Def Con from 0.000111712 ++++to 0.000111712
Heightened Def Con from 0.000111712 ++++to 0.000111712
Heightened Def Con from 0.000111712 ++++to 0.000111712
Heightened Def Con from 0.000111712 ++++to 0.000111712
Heightened Def Con from 0.000111712 +++++to 0.000111712
Heightened Def Con from 0.000111712 +++++to 0.000111712
Heightened Def Con from 0.000111712 +++++to 0.000111712
Heightened Def Con from 0.000111712 +++++to 0.000111712
Heightened Def Con from 0.000111712 +++++to 0.000111712
Heightened Def Con from 0.000111712 +++++to 0.000111712
Heightened Def Con from 0.000111712 ++++++to 0.000111712
Heightened Def Con from 0.000111712 ++++++to 0.000111712
Heightened Def Con from 0.000111712 ++++++to 0.000111712
Heightened Def Con from 0.000111712 to 0.000111712
Heightened Def Con from 0.000120285 to 0.000120285
Heightened Def Con from 0.000120285 +to 0.000120285
Heightened Def Con from 0.000120285 to 0.000120285
Heightened Def Con from 0.000120285 to 0.000120285
Heightened Def Con from 0.000120285 to 0.000120285
Heightened Def Con from 0.000120285 to 0.000120285
Heightened Def Con from 0.000120285 to 0.000120285
Heightened Def Con from 0.000120285 +to 0.000120285
Heightened Def Con from 0.000120285 +to 0.000120285
Heightened Def Con from 0.000120285 to 0.000120285
Heightened Def Con from 0.000120285 +to 0.000120285
Heightened Def Con from 0.000120285 +++to 0.000120285
Heightened Def Con from 0.000120285 ++to 0.000120285
Heightened Def Con from 0.000120285 +to 0.000120285
Heightened Def Con from 0.000120285 ++++to 0.000120285
Heightened Def Con from 0.000120285 +++++to 0.000120285
Heightened Def Con from 0.000120285 +++++to 0.000120285
Heightened Def Con from 0.000120285 ++++++to 0.000120285
Heightened Def Con from 0.000120285 ++++++to 0.000120285
Heightened Def Con from 0.000120285 ++++++to 0.000120285
Heightened Def Con from 0.000120285 ++++++to 0.000120285
Heightened Def Con from 0.000120285 ++++++to 0.000120285
Heightened Def Con from 0.000120285 +++++++to 0.000120285
Heightened Def Con from 0.000120285 ++++++++to 0.000120285
Heightened Def Con from 0.000120285 ++++++++to 0.000120285
Heightened Def Con from 0.000120285 ++++++++to 0.000120285
Heightened Def Con from 0.000120285 ++++++++to 0.000120285
Heightened Def Con from 0.000120285 ++++++++to 0.000120285
Heightened Def Con from 0.000120285 +++++++to 0.000120285
Heightened Def Con from 0.000120285 +++++++to 0.000120285
Heightened Def Con from 0.000120285 +++++++to 0.000120285
Heightened Def Con from 0.000120285 +++++++to 0.000120285
Heightened Def Con from 0.000120285 +++++++to 0.000120285
Heightened Def Con from 0.000120285 +++++++to 0.000120285
Heightened Def Con from 0.000120285 +++++++to 0.000120285
Heightened Def Con from 0.000120285 +++++++to 0.000120285
Heightened Def Con from 0.000120285 +++++++to 0.000120285
Heightened Def Con from 0.000120285 +++++++to 0.000120285
Heightened Def Con from 0.000120285 +++++++to 0.000120285
Heightened Def Con from 0.000120285 +++++++to 0.000120285
Heightened Def Con from 0.000120285 +++++++to 0.000120285
Heightened Def Con from 0.000120285 +++++++to 0.000120285
Heightened Def Con from 0.000120285 +++++++to 0.000120285
Heightened Def Con from 0.000120285 +++++++to 0.000120285
Heightened Def Con from 0.000120285 +++++++to 0.000120285
Heightened Def Con from 0.000120285 +++++++to 0.000120285
Heightened Def Con from 0.000120285 +++++++to 0.000120285
Heightened Def Con from 0.000120285 +++++++to 0.000120285
Heightened Def Con from 0.000120285 +++++++to 0.000120285
Heightened Def Con from 0.000120285 +++++++to 0.000120285
Heightened Def Con from 0.000120285 +++++++to 0.000120285
Heightened Def Con from 0.000120285 +++++++to 0.000120285
Heightened Def Con from 0.000120285 ++++++++to 0.000120285
Heightened Def Con from 0.000120285 ++++++++to 0.000120285
Heightened Def Con from 0.000120285 ++++++++to 0.000120285
Heightened Def Con from 0.000120285 ++++++++to 0.000120285
Heightened Def Con from 0.000120285 to 0.000120287
Heightened Def Con from 0.000171712 ++to 0.000171712
Heightened Def Con from 0.000171712 +++to 0.000171712
Heightened Def Con from 0.000171712 ++to 0.000171712
Heightened Def Con from 0.000171712 ++to 0.000171712
Heightened Def Con from 0.000171712 ++++to 0.000171712
Heightened Def Con from 0.000171712 to 0.000171712
Heightened Def Con from 0.000171712 to 0.000171712
Heightened Def Con from 0.000191712 to 0.000191713
Heightened Def Con from 0.000211712 ++to 0.000211712
Heightened Def Con from 0.000211712 ++to 0.000211712
Heightened Def Con from 0.000211712 +++to 0.000211712
Heightened Def Con from 0.000211712 +++to 0.000211712
Heightened Def Con from 0.000211712 +++to 0.000211712
Heightened Def Con from 0.000211712 +++to 0.000211712
Heightened Def Con from 0.000211712 +++to 0.000211712
Heightened Def Con from 0.000211712 +++to 0.000211712
Heightened Def Con from 0.000211712 +++to 0.000211712
Heightened Def Con from 0.000211712 +++to 0.000211712
Heightened Def Con from 0.000211712 ++++to 0.000211712
Heightened Def Con from 0.000211712 ++++to 0.000211712
Heightened Def Con from 0.000211712 ++++to 0.000211712
Heightened Def Con from 0.000211712 ++++to 0.000211712
Heightened Def Con from 0.000211712 ++++to 0.000211712
Heightened Def Con from 0.000211712 ++++to 0.000211712
Heightened Def Con from 0.000211712 ++++to 0.000211712
Heightened Def Con from 0.000211712 ++to 0.000211712
Heightened Def Con from 0.000211712 to 0.000211712
Heightened Def Con from 0.000231712 to 0.000231712
Heightened Def Con from 0.000231712 to 0.000231712
Heightened Def Con from 0.000231712 to 0.000231712
Heightened Def Con from 0.000231712 ++to 0.000231712
Heightened Def Con from 0.000231712 ++to 0.000231712
Heightened Def Con from 0.000231712 +++to 0.000231712
Heightened Def Con from 0.000231712 +++to 0.000231712
Heightened Def Con from 0.000231712 +++to 0.000231712
Heightened Def Con from 0.000231712 +++to 0.000231712
Heightened Def Con from 0.000231712 ++++to 0.000231712
Heightened Def Con from 0.000231712 +++++to 0.000231712
Heightened Def Con from 0.000231712 +++++to 0.000231712
Heightened Def Con from 0.000231712 +++++to 0.000231712
Heightened Def Con from 0.000231712 +++++to 0.000231712
Heightened Def Con from 0.000231712 +++++to 0.000231712
Heightened Def Con from 0.000231712 +++++to 0.000231712
Heightened Def Con from 0.000231712 +++++to 0.000231712
Heightened Def Con from 0.000231712 to 0.000231712
Heightened Def Con from 0.000231712 to 0.000231714
Heightened Def Con from 0.000260286 +to 0.000260286
Heightened Def Con from 0.000260286 to 0.000260286
Heightened Def Con from 0.000260286 to 0.000260286
Heightened Def Con from 0.000260286 to 0.000260286
Heightened Def Con from 0.000260286 +to 0.000260286
Heightened Def Con from 0.000260286 ++to 0.000260286
Heightened Def Con from 0.000260286 ++to 0.000260286
Heightened Def Con from 0.000260286 +++to 0.000260286
Heightened Def Con from 0.000260286 +++to 0.000260286
Heightened Def Con from 0.000260286 +++to 0.000260286
Heightened Def Con from 0.000260286 +++to 0.000260286
Heightened Def Con from 0.000260286 +++to 0.000260286
Heightened Def Con from 0.000260286 +++to 0.000260286
Heightened Def Con from 0.000260286 +++to 0.000260286
Heightened Def Con from 0.000260286 +++to 0.000260286
Heightened Def Con from 0.000260286 +++to 0.000260286
Heightened Def Con from 0.000260286 +++to 0.000260286
Heightened Def Con from 0.000260286 +++to 0.000260286
Heightened Def Con from 0.000260286 +++to 0.000260286
Heightened Def Con from 0.000260286 +++to 0.000260286
Heightened Def Con from 0.000260286 +++to 0.000260286
Heightened Def Con from 0.000260286 +++to 0.000260286
Heightened Def Con from 0.000260286 +++to 0.000260286
Heightened Def Con from 0.000260286 +++to 0.000260286
Heightened Def Con from 0.000260286 +++to 0.000260286
Heightened Def Con from 0.000260286 +++to 0.000260286
Heightened Def Con from 0.000260286 +++to 0.000260286
Heightened Def Con from 0.000260286 to 0.000260286
Heightened Def Con from 0.000271712 to 0.000271712
Heightened Def Con from 0.000271712 +to 0.000271712
Heightened Def Con from 0.000271712 +++to 0.000271712
Heightened Def Con from 0.000271712 +++to 0.000271712
Heightened Def Con from 0.000271712 +++to 0.000271712
Heightened Def Con from 0.000271712 ++++to 0.000271712
Heightened Def Con from 0.000271712 +++to 0.000271712
Heightened Def Con from 0.000271712 ++++to 0.000271712
Heightened Def Con from 0.000271712 ++++to 0.000271712
Heightened Def Con from 0.000271712 ++++to 0.000271712
Heightened Def Con from 0.000271712 ++++to 0.000271712
Heightened Def Con from 0.000271712 +++++to 0.000271712
Heightened Def Con from 0.000271712 +++++to 0.000271712
Heightened Def Con from 0.000271712 +++++to 0.000271712
Heightened Def Con from 0.000271712 +++++to 0.000271712
Heightened Def Con from 0.000271712 +++++to 0.000271712
Heightened Def Con from 0.000271712 ++++++to 0.000271712
Heightened Def Con from 0.000271712 ++++++to 0.000271712
Heightened Def Con from 0.000271712 ++++++to 0.000271712
Heightened Def Con from 0.000271712 to 0.000271712
Heightened Def Con from 0.000291712 to 0.000291712
Heightened Def Con from 0.000291712 +to 0.000291712
Heightened Def Con from 0.000291712 +++to 0.000291712
Heightened Def Con from 0.000291712 ++to 0.000291712
Heightened Def Con from 0.000291712 +++to 0.000291712
Heightened Def Con from 0.000291712 +++to 0.000291712
Heightened Def Con from 0.000291712 +++to 0.000291712
Heightened Def Con from 0.000291712 ++++to 0.000291712
Heightened Def Con from 0.000291712 ++++to 0.000291712
Heightened Def Con from 0.000291712 ++++to 0.000291712
Heightened Def Con from 0.000291712 ++++to 0.000291712
Heightened Def Con from 0.000291712 ++++to 0.000291712
Heightened Def Con from 0.000291712 ++++to 0.000291712
Heightened Def Con from 0.000291712 ++++to 0.000291712
Heightened Def Con from 0.000291712 +++++to 0.000291712
Heightened Def Con from 0.000291712 +++++to 0.000291712
Heightened Def Con from 0.000291712 +++++to 0.000291712
Heightened Def Con from 0.000291712 +++++to 0.000291712
Heightened Def Con from 0.000291712 ++++++to 0.000291712
Heightened Def Con from 0.000291712 ++++++to 0.000291712
Heightened Def Con from 0.000291712 ++++++to 0.000291712
Heightened Def Con from 0.000291712 ++++++to 0.000291712
Heightened Def Con from 0.000291712 ++++++to 0.000291712
Heightened Def Con from 0.000291712 +++++++to 0.000291712
Heightened Def Con from 0.000291712 +++++++to 0.000291712
Heightened Def Con from 0.000291712 +++++++to 0.000291712
Heightened Def Con from 0.000291712 +++++++to 0.000291712
Heightened Def Con from 0.000291712 +++++++to 0.000291712
Heightened Def Con from 0.000291712 +++++++to 0.000291712
Heightened Def Con from 0.000291712 +++++++to 0.000291712
Heightened Def Con from 0.000291712 +++++++to 0.000291712
Heightened Def Con from 0.000291712 ++++++++to 0.000291712
Heightened Def Con from 0.000291712 ++++++++to 0.000291712
Heightened Def Con from 0.000291712 ++++++++to 0.000291712
Heightened Def Con from 0.000291712 ++++++++to 0.000291712
Heightened Def Con from 0.000291712 to 0.000291714
Heightened Def Con from 0.000311712 to 0.000311712
Heightened Def Con from 0.000311712 to 0.000311712
Heightened Def Con from 0.000420286 to 0.000420286
Heightened Def Con from 0.000420286 ++to 0.000420286
Heightened Def Con from 0.000420286 ++to 0.000420286
Heightened Def Con from 0.000420286 +++to 0.000420286
Heightened Def Con from 0.000420286 ++to 0.000420286
Heightened Def Con from 0.000420286 ++to 0.000420286
Heightened Def Con from 0.000420286 ++to 0.000420286
Heightened Def Con from 0.000420286 ++to 0.000420286
Heightened Def Con from 0.000420286 ++to 0.000420286
Heightened Def Con from 0.000420286 ++to 0.000420286
Heightened Def Con from 0.000420286 ++to 0.000420286
Heightened Def Con from 0.000420286 ++to 0.000420286
Heightened Def Con from 0.000420286 ++to 0.000420286
Heightened Def Con from 0.000420286 ++to 0.000420286
Heightened Def Con from 0.000420286 +++to 0.000420286
Heightened Def Con from 0.000420286 +++to 0.000420286
Heightened Def Con from 0.000420286 +++to 0.000420286
Heightened Def Con from 0.000420286 +++to 0.000420286
Heightened Def Con from 0.000420286 +++to 0.000420286
Heightened Def Con from 0.000420286 +++to 0.000420286
Heightened Def Con from 0.000420286 +++to 0.000420286
Heightened Def Con from 0.000420286 +++to 0.000420286
Heightened Def Con from 0.000420286 +++to 0.000420286
Heightened Def Con from 0.000420286 ++++to 0.000420286
Heightened Def Con from 0.000420286 +++++to 0.000420286
Heightened Def Con from 0.000420286 +++++to 0.000420286
Heightened Def Con from 0.000420286 ++++++to 0.000420286
Heightened Def Con from 0.000420286 ++++++to 0.000420286
Heightened Def Con from 0.000420286 ++++++to 0.000420286
Heightened Def Con from 0.000420286 ++++++to 0.000420286
Heightened Def Con from 0.000420286 ++++++to 0.000420286
Heightened Def Con from 0.000420286 +++++++to 0.000420286
Heightened Def Con from 0.000420286 +++++++to 0.000420286
Heightened Def Con from 0.000420286 +++++++to 0.000420286
Heightened Def Con from 0.000420286 +++++++to 0.000420286
Heightened Def Con from 0.000420286 +++++++to 0.000420286
Heightened Def Con from 0.000420286 +++++++to 0.000420286
Heightened Def Con from 0.000420286 +++++++to 0.000420286
Heightened Def Con from 0.000420286 +++++++to 0.000420286
Heightened Def Con from 0.000420286 ++++++++to 0.000420286
Heightened Def Con from 0.000420286 ++++++++to 0.000420286
Heightened Def Con from 0.000420286 ++++++++to 0.000420286
Heightened Def Con from 0.000420286 ++++++++to 0.000420286
Heightened Def Con from 0.000420286 ++++++++to 0.000420286
Heightened Def Con from 0.000420286 ++++++++to 0.000420286
Heightened Def Con from 0.000420286 ++++++++to 0.000420286
Heightened Def Con from 0.000420286 ++++++++to 0.000420286
Heightened Def Con from 0.000420286 +++++++++to 0.000420286
Heightened Def Con from 0.000420286 +++++++++to 0.000420286
Heightened Def Con from 0.000420286 +++++++++to 0.000420286
Heightened Def Con from 0.000420286 +++++++++to 0.000420286
Heightened Def Con from 0.000420286 +++++++++to 0.000420286
Heightened Def Con from 0.000420286 +++++++++to 0.000420286
Heightened Def Con from 0.000420286 +++++++++to 0.000420286
Heightened Def Con from 0.000420286 to 0.000420288
Heightened Def Con from 0.000631712 +to 0.000631712
Heightened Def Con from 0.000631712 +++to 0.000631712
Heightened Def Con from 0.000631712 +++to 0.000631712
Heightened Def Con from 0.000631712 ++++to 0.000631712
Heightened Def Con from 0.000631712 ++++to 0.000631712
Heightened Def Con from 0.000631712 ++++to 0.000631712
Heightened Def Con from 0.000631712 ++++to 0.000631712
Heightened Def Con from 0.000631712 +++to 0.000631712
Heightened Def Con from 0.000631712 ++++to 0.000631712
Heightened Def Con from 0.000631712 +++++to 0.000631712
Heightened Def Con from 0.000631712 ++++to 0.000631712
Heightened Def Con from 0.000631712 +++++to 0.000631712
Heightened Def Con from 0.000631712 ++++++to 0.000631712
Heightened Def Con from 0.000631712 ++++++to 0.000631712
Heightened Def Con from 0.000631712 ++++++to 0.000631712
Heightened Def Con from 0.000631712 ++++++to 0.000631712
Heightened Def Con from 0.000631712 ++++++to 0.000631712
Heightened Def Con from 0.000631712 ++++++to 0.000631712
Heightened Def Con from 0.000631712 +++++++to 0.000631712
Heightened Def Con from 0.000631712 +++++++to 0.000631712
Heightened Def Con from 0.000631712 +++++++to 0.000631712
Heightened Def Con from 0.000631712 +++++++to 0.000631712
Heightened Def Con from 0.000631712 +++++++to 0.000631712
Heightened Def Con from 0.000631712 +++++++to 0.000631712
Heightened Def Con from 0.000631712 +++++++to 0.000631712
Heightened Def Con from 0.000631712 +++++++to 0.000631712
Heightened Def Con from 0.000631712 +++++++to 0.000631712
Heightened Def Con from 0.000631712 ++++++++to 0.000631712
Heightened Def Con from 0.000631712 ++++++++to 0.000631712
Heightened Def Con from 0.000631712 ++++++++to 0.000631712
Heightened Def Con from 0.000631712 ++++++++to 0.000631712
Heightened Def Con from 0.000631712 ++++++++to 0.000631712
Heightened Def Con from 0.000631712 ++++++++to 0.000631712
Heightened Def Con from 0.000631712 +++++++++to 0.000631712
Heightened Def Con from 0.000631712 +++++++++to 0.000631712
Heightened Def Con from 0.000631712 +++++++++to 0.000631712
Heightened Def Con from 0.000631712 +++++++++to 0.000631712
Heightened Def Con from 0.000631712 +++++++++to 0.000631712
Heightened Def Con from 0.000631712 +++++++++to 0.000631712
Heightened Def Con from 0.000631712 +++++++++to 0.000631712
Heightened Def Con from 0.000651712 to 0.000651712
Heightened Def Con from 0.000651712 +to 0.000651712
Heightened Def Con from 0.000651712 +++to 0.000651712
Heightened Def Con from 0.000651712 +++to 0.000651712
Heightened Def Con from 0.000651712 +++to 0.000651712
Heightened Def Con from 0.000651712 ++++to 0.000651712
Heightened Def Con from 0.000651712 +++to 0.000651712
Heightened Def Con from 0.000651712 to 0.000651712
Heightened Def Con from 0.000671712 to 0.000671712
Heightened Def Con from 0.000671712 ++to 0.000671712
Heightened Def Con from 0.000671712 +++to 0.000671712
Heightened Def Con from 0.000671712 ++to 0.000671712
Heightened Def Con from 0.000671712 +++to 0.000671712
Heightened Def Con from 0.000671712 +++to 0.000671712
Heightened Def Con from 0.000671712 ++++to 0.000671712
Heightened Def Con from 0.000671712 +++++to 0.000671712
Heightened Def Con from 0.000671712 +++++to 0.000671712
Heightened Def Con from 0.000671712 +++++to 0.000671712
Heightened Def Con from 0.000671712 ++++++to 0.000671712
Heightened Def Con from 0.000671712 ++++++to 0.000671712
Heightened Def Con from 0.000671712 ++++++to 0.000671712
Heightened Def Con from 0.000671712 ++++++to 0.000671712
Heightened Def Con from 0.000671712 ++++++to 0.000671712
Heightened Def Con from 0.000671712 ++++++to 0.000671712
Heightened Def Con from 0.000671712 ++++++to 0.000671712
Heightened Def Con from 0.000671712 +++++++to 0.000671712
Heightened Def Con from 0.000671712 +++++++to 0.000671712
Heightened Def Con from 0.000671712 +++++++to 0.000671712
Heightened Def Con from 0.000671712 +++++++to 0.000671712
Heightened Def Con from 0.000671712 +++++++to 0.000671712
Heightened Def Con from 0.000671712 +++++++to 0.000671712
Heightened Def Con from 0.000671712 +++++++to 0.000671712
Heightened Def Con from 0.000671712 +++++++to 0.000671712
Heightened Def Con from 0.000671712 +++++++to 0.000671712
Heightened Def Con from 0.000671712 +++++++to 0.000671712
Heightened Def Con from 0.000671712 ++++++++to 0.000671712
Heightened Def Con from 0.000671712 ++++++++to 0.000671712
Heightened Def Con from 0.000671712 ++++++++to 0.000671712
Heightened Def Con from 0.000671712 ++++++++to 0.000671712
Heightened Def Con from 0.000671712 ++++++++to 0.000671712
Heightened Def Con from 0.000671712 ++++++++to 0.000671712
Heightened Def Con from 0.000671712 ++++++++to 0.000671712
Heightened Def Con from 0.000671712 to 0.000671714
Heightened Def Con from 0.000691712 +to 0.000691712
Heightened Def Con from 0.000691712 +to 0.000691712
Heightened Def Con from 0.000691712 ++to 0.000691712
Heightened Def Con from 0.000691712 +++to 0.000691712
Heightened Def Con from 0.000691712 +++to 0.000691712
Heightened Def Con from 0.000691712 +++to 0.000691712
Heightened Def Con from 0.000691712 ++++to 0.000691712
Heightened Def Con from 0.000691712 ++++to 0.000691712
Heightened Def Con from 0.000691712 ++++to 0.000691712
Heightened Def Con from 0.000691712 ++++to 0.000691712
Heightened Def Con from 0.000691712 +++to 0.000691712
Heightened Def Con from 0.000691712 ++++to 0.000691712
Heightened Def Con from 0.000691712 ++++to 0.000691712
Heightened Def Con from 0.000691712 ++++to 0.000691712
Heightened Def Con from 0.000691712 +++++to 0.000691712
Heightened Def Con from 0.000691712 +++++to 0.000691712
Heightened Def Con from 0.000691712 +++++to 0.000691712
Heightened Def Con from 0.000691712 +++++to 0.000691712
Heightened Def Con from 0.000691712 ++++++to 0.000691712
Heightened Def Con from 0.000691712 ++++++to 0.000691712
Heightened Def Con from 0.000691712 +++++++to 0.000691712
Heightened Def Con from 0.000691712 +++++++to 0.000691712
Heightened Def Con from 0.000691712 +++++++to 0.000691712
Heightened Def Con from 0.000691712 +++++++to 0.000691712
Heightened Def Con from 0.000691712 +++++++to 0.000691712
Heightened Def Con from 0.000691712 +++++++to 0.000691712
Heightened Def Con from 0.000691712 +++++++to 0.000691712
Heightened Def Con from 0.000691712 +++++++to 0.000691712
Heightened Def Con from 0.000691712 ++++++++to 0.000691712
Heightened Def Con from 0.000691712 ++++++++to 0.000691712
Heightened Def Con from 0.000691712 ++++++++to 0.000691712
Heightened Def Con from 0.000691712 ++++++++to 0.000691712
Heightened Def Con from 0.000691712 ++++++++to 0.000691712
Heightened Def Con from 0.000691712 ++++++++to 0.000691712
Heightened Def Con from 0.000691712 ++++++++to 0.000691712
Heightened Def Con from 0.000691712 +++++++++to 0.000691712
Heightened Def Con from 0.000691712 +++++++++to 0.000691712
Heightened Def Con from 0.000691712 +++++++++to 0.000691712
Heightened Def Con from 0.000691712 +++++++++to 0.000691712
Heightened Def Con from 0.000691712 +++++++++to 0.000691712
Heightened Def Con from 0.000691712 +++++++++to 0.000691712
Heightened Def Con from 0.000691712 +++++++++to 0.000691712
Heightened Def Con from 0.000691712 +++++++++to 0.000691712
Heightened Def Con from 0.000691712 +++++++++to 0.000691712
Heightened Def Con from 0.000811712 to 0.000811712
Heightened Def Con from 0.000811712 to 0.000811712
Heightened Def Con from 0.000811712 to 0.000811712
Heightened Def Con from 0.000811712 to 0.000811712
Heightened Def Con from 0.000811712 ++to 0.000811712
Heightened Def Con from 0.000811712 ++to 0.000811712
Heightened Def Con from 0.000811712 ++to 0.000811712
Heightened Def Con from 0.000811712 ++to 0.000811712
Heightened Def Con from 0.000811712 to 0.000811712
Heightened Def Con from 0.000811712 to 0.000811712
Heightened Def Con from 0.000831712 ++to 0.000831712
Heightened Def Con from 0.000831712 to 0.000831712
Heightened Def Con from 0.000831712 to 0.000831712
Heightened Def Con from 0.000831712 ++to 0.000831712
Heightened Def Con from 0.000831712 ++++to 0.000831712
Heightened Def Con from 0.000831712 ++++to 0.000831712
Heightened Def Con from 0.000831712 ++++to 0.000831712
Heightened Def Con from 0.000831712 to 0.000831712
Heightened Def Con from 0.000851712 to 0.000851712
Heightened Def Con from 0.000851712 to 0.000851712
Heightened Def Con from 0.000851712 to 0.000851712
Heightened Def Con from 0.000851712 ++to 0.000851712
Heightened Def Con from 0.000851712 ++to 0.000851712
Heightened Def Con from 0.000851712 +++to 0.000851712
Heightened Def Con from 0.000851712 +++to 0.000851712
Heightened Def Con from 0.000851712 +++to 0.000851712
Heightened Def Con from 0.000851712 ++++to 0.000851712
Heightened Def Con from 0.000851712 ++++to 0.000851712
Heightened Def Con from 0.000851712 ++++to 0.000851712
Heightened Def Con from 0.000851712 ++++to 0.000851712
Heightened Def Con from 0.000851712 ++++to 0.000851712
Heightened Def Con from 0.000851712 +++++to 0.000851712
Heightened Def Con from 0.000851712 +++++to 0.000851712
Heightened Def Con from 0.000851712 +++++to 0.000851712
Heightened Def Con from 0.000851712 ++++++to 0.000851712
Heightened Def Con from 0.000851712 ++++++to 0.000851712
Heightened Def Con from 0.000851712 ++++++to 0.000851712
Heightened Def Con from 0.000851712 ++++++to 0.000851712
Heightened Def Con from 0.000851712 ++++++to 0.000851712
Heightened Def Con from 0.000851712 ++++++to 0.000851712
Heightened Def Con from 0.000851712 ++++++to 0.000851712
Heightened Def Con from 0.000851712 ++++++to 0.000851712
Heightened Def Con from 0.000851712 ++++++to 0.000851712
Heightened Def Con from 0.000851712 ++++++to 0.000851712
Heightened Def Con from 0.000851712 ++++++to 0.000851712
Heightened Def Con from 0.000851712 +++++++to 0.000851712
Heightened Def Con from 0.000851712 +++++++to 0.000851712
Heightened Def Con from 0.000851712 +++++++to 0.000851712
Heightened Def Con from 0.000851712 +++++++to 0.000851712
Heightened Def Con from 0.000851712 +++++++to 0.000851712
Heightened Def Con from 0.000851712 +++++++to 0.000851712
Heightened Def Con from 0.000851712 +++++++to 0.000851712
Heightened Def Con from 0.000851712 +++++++to 0.000851712
Heightened Def Con from 0.000851712 +++++++to 0.000851712
Heightened Def Con from 0.000851712 +++++++to 0.000851712
Heightened Def Con from 0.000851712 +++++++to 0.000851712
Heightened Def Con from 0.000851712 +++++++to 0.000851712
Heightened Def Con from 0.000851712 ++++++++to 0.000851712
Heightened Def Con from 0.000851712 ++++++++to 0.000851712
Heightened Def Con from 0.000851712 ++++++++to 0.000851712
Heightened Def Con from 0.000851712 ++++++++to 0.000851712
Heightened Def Con from 0.000851712 to 0.000851714
Heightened Def Con from 0.000891712 to 0.000891712
Heightened Def Con from 0.000891712 to 0.000891712
Heightened Def Con from 0.000891712 +to 0.000891712
Heightened Def Con from 0.000891712 ++to 0.000891712
Heightened Def Con from 0.000891712 +++to 0.000891712
Heightened Def Con from 0.000891712 ++++to 0.000891712
Heightened Def Con from 0.000891712 +++to 0.000891712
Heightened Def Con from 0.000891712 ++++to 0.000891712
Heightened Def Con from 0.000891712 ++++to 0.000891712
Heightened Def Con from 0.000891712 ++++to 0.000891712
Heightened Def Con from 0.000891712 ++++to 0.000891712
Heightened Def Con from 0.000891712 ++++to 0.000891712
Heightened Def Con from 0.000891712 +++++to 0.000891712
Heightened Def Con from 0.000891712 +++++to 0.000891712
Heightened Def Con from 0.000891712 +++++to 0.000891712
Heightened Def Con from 0.000891712 +++++to 0.000891712
Heightened Def Con from 0.000891712 +++++to 0.000891712
Heightened Def Con from 0.000891712 ++++++to 0.000891712
Heightened Def Con from 0.000891712 ++++++to 0.000891712
Heightened Def Con from 0.000891712 ++++++to 0.000891712
Heightened Def Con from 0.000891712 +++++++to 0.000891712
Heightened Def Con from 0.000891712 +++++++to 0.000891712
Heightened Def Con from 0.000891712 +++++++to 0.000891712
Heightened Def Con from 0.000891712 +++++++to 0.000891712
Heightened Def Con from 0.000891712 +++++++to 0.000891712
Heightened Def Con from 0.000891712 +++++++to 0.000891712
Heightened Def Con from 0.000891712 +++++++to 0.000891712
Heightened Def Con from 0.000891712 +++++++to 0.000891712
Heightened Def Con from 0.000891712 +++++++to 0.000891712
Heightened Def Con from 0.000891712 to 0.000891714
Heightened Def Con from 0.000951712 to 0.000951712
Heightened Def Con from 0.000951712 ++++to 0.000951712
Heightened Def Con from 0.000951712 ++++to 0.000951712
Heightened Def Con from 0.000951712 ++++to 0.000951712
Heightened Def Con from 0.000951712 +++++to 0.000951712
Heightened Def Con from 0.000951712 +++++to 0.000951712
Heightened Def Con from 0.000951712 +++++to 0.000951712
Heightened Def Con from 0.000951712 ++++++to 0.000951712
Heightened Def Con from 0.000951712 ++++++to 0.000951712
Heightened Def Con from 0.000951712 ++++++to 0.000951712
Heightened Def Con from 0.000951712 +++++++to 0.000951712
Heightened Def Con from 0.000951712 +++++++to 0.000951712
Heightened Def Con from 0.000951712 +++++++to 0.000951712
Heightened Def Con from 0.000951712 +++++++to 0.000951712
Heightened Def Con from 0.000951712 +++++++to 0.000951712
Heightened Def Con from 0.000951712 +++++++to 0.000951712
Heightened Def Con from 0.000951712 +++++++to 0.000951712
Heightened Def Con from 0.000951712 +++++++to 0.000951712
Heightened Def Con from 0.000951712 +++++++to 0.000951712
Heightened Def Con from 0.000951712 +++++++to 0.000951712
Heightened Def Con from 0.000951712 ++++++++to 0.000951712
Heightened Def Con from 0.000951712 ++++++++to 0.000951712
Heightened Def Con from 0.000951712 ++++++++to 0.000951712
Heightened Def Con from 0.000951712 ++++++++to 0.000951712
Heightened Def Con from 0.000951712 ++++++++to 0.000951712
Heightened Def Con from 0.000951712 ++++++++to 0.000951712
Heightened Def Con from 0.000951712 to 0.000951714
Heightened Def Con from 0.00100029 ++to 0.00100029
Heightened Def Con from 0.00100029 ++to 0.00100029
Heightened Def Con from 0.00100029 +++to 0.00100029
Heightened Def Con from 0.00100029 +++to 0.00100029
Heightened Def Con from 0.00100029 +++to 0.00100029
Heightened Def Con from 0.00100029 ++++to 0.00100029
Heightened Def Con from 0.00100029 +++++to 0.00100029
Heightened Def Con from 0.00100029 +++++to 0.00100029
Heightened Def Con from 0.00100029 ++++++to 0.00100029
Heightened Def Con from 0.00100029 ++++++to 0.00100029
Heightened Def Con from 0.00100029 ++++++to 0.00100029
Heightened Def Con from 0.00100029 ++++++to 0.00100029
Heightened Def Con from 0.00100029 ++++++to 0.00100029
Heightened Def Con from 0.00100029 to 0.00100029
Heightened Def Con from 0.00101171 +to 0.00101171
Heightened Def Con from 0.00101171 to 0.00101171
Heightened Def Con from 0.00104029 to 0.00104029
Heightened Def Con from 0.00104029 to 0.00104029
Heightened Def Con from 0.00104029 to 0.00104029
Heightened Def Con from 0.00104029 to 0.00104029
Heightened Def Con from 0.00104029 +to 0.00104029
Heightened Def Con from 0.00106029 to 0.00106029
Heightened Def Con from 0.00106029 ++to 0.00106029
Heightened Def Con from 0.00106029 ++to 0.00106029
Heightened Def Con from 0.00106029 +++to 0.00106029
Heightened Def Con from 0.00106029 +++to 0.00106029
Heightened Def Con from 0.00106029 ++++to 0.00106029
Heightened Def Con from 0.00106029 +++++to 0.00106029
Heightened Def Con from 0.00106029 +++++to 0.00106029
Heightened Def Con from 0.00106029 ++++++to 0.00106029
Heightened Def Con from 0.00106029 ++++++to 0.00106029
Heightened Def Con from 0.00106029 ++++++to 0.00106029
Heightened Def Con from 0.00106029 ++++++to 0.00106029
Heightened Def Con from 0.00106029 ++++++to 0.00106029
Heightened Def Con from 0.00106029 ++++++to 0.00106029
Heightened Def Con from 0.00106029 +++++++to 0.00106029
Heightened Def Con from 0.00106029 +++++++to 0.00106029
Heightened Def Con from 0.00106029 +++++++to 0.00106029
Heightened Def Con from 0.00106029 +++++++to 0.00106029
Heightened Def Con from 0.00106029 +++++++to 0.00106029
Heightened Def Con from 0.00106029 +++++++to 0.00106029
Heightened Def Con from 0.00106029 +++++++to 0.00106029
Heightened Def Con from 0.00106029 +++++++to 0.00106029
Heightened Def Con from 0.00106029 +++++++to 0.00106029
Heightened Def Con from 0.00106029 ++++++++to 0.00106029
Heightened Def Con from 0.00106029 ++++++++to 0.00106029
Heightened Def Con from 0.00106029 ++++++++to 0.00106029
Heightened Def Con from 0.00106029 ++++++++to 0.00106029
Heightened Def Con from 0.00106029 ++++++++to 0.00106029
Heightened Def Con from 0.00106029 ++++++++to 0.00106029
Heightened Def Con from 0.00106029 ++++++++to 0.00106029
Heightened Def Con from 0.00106029 ++++++++to 0.00106029
Heightened Def Con from 0.00106029 to 0.00106029
Heightened Def Con from 0.00109171 +to 0.00109171
Heightened Def Con from 0.00109171 ++to 0.00109171
Heightened Def Con from 0.00109171 ++++to 0.00109171
Heightened Def Con from 0.00109171 +++++to 0.00109171
Heightened Def Con from 0.00109171 +++++to 0.00109171
Heightened Def Con from 0.00109171 +++++to 0.00109171
Heightened Def Con from 0.00109171 +++++to 0.00109171
Heightened Def Con from 0.00109171 ++++++to 0.00109171
Heightened Def Con from 0.00109171 ++++++to 0.00109171
Heightened Def Con from 0.00109171 ++++++to 0.00109171
Heightened Def Con from 0.00109171 ++++++to 0.00109171
Heightened Def Con from 0.00109171 ++++++to 0.00109171
Heightened Def Con from 0.00109171 ++++++to 0.00109171
Heightened Def Con from 0.00109171 +++++++to 0.00109171
Heightened Def Con from 0.00109171 +++++++to 0.00109171
Heightened Def Con from 0.00109171 +++++++to 0.00109171
Heightened Def Con from 0.00109171 +++++++to 0.00109171
Heightened Def Con from 0.00109171 +++++++to 0.00109171
Heightened Def Con from 0.00109171 ++++++++to 0.00109171
Heightened Def Con from 0.00109171 ++++++++to 0.00109171
Heightened Def Con from 0.00109171 ++++++++to 0.00109171
Heightened Def Con from 0.00109171 ++++++++to 0.00109171
Heightened Def Con from 0.00109171 ++++++++to 0.00109171
Heightened Def Con from 0.00109171 +++++++++to 0.00109171
Heightened Def Con from 0.00109171 +++++++++to 0.00109171
Heightened Def Con from 0.00109171 +++++++++to 0.00109171
Heightened Def Con from 0.00109171 +++++++++to 0.00109171
Heightened Def Con from 0.00109171 +++++++++to 0.00109171
Heightened Def Con from 0.00109171 +++++++++to 0.00109171
Heightened Def Con from 0.00109171 +++++++++to 0.00109171
Heightened Def Con from 0.00109171 +++++++++to 0.00109171
Heightened Def Con from 0.00109171 +++++++++to 0.00109171
Heightened Def Con from 0.00109171 ++++++++++to 0.00109171
Heightened Def Con from 0.00109171 ++++++++++to 0.00109171
Heightened Def Con from 0.00109171 ++++++++++to 0.00109171
Heightened Def Con from 0.00109171 ++++++++++to 0.00109171
Heightened Def Con from 0.00109171 ++++++++++to 0.00109171
Heightened Def Con from 0.00109171 ++++++++++to 0.00109171
Heightened Def Con from 0.00109171 ++++++++++to 0.00109171
Heightened Def Con from 0.00109171 ++++++++++to 0.00109171
Heightened Def Con from 0.00109171 ++++++++++to 0.00109171
Heightened Def Con from 0.00109171 ++++++++++to 0.00109171
Heightened Def Con from 0.00110029 +++to 0.00110029
Heightened Def Con from 0.00110029 ++++to 0.00110029
Heightened Def Con from 0.00110029 to 0.00110029
Heightened Def Con from 0.00111171 to 0.00111171
Heightened Def Con from 0.00113171 +to 0.00113171
Heightened Def Con from 0.00113171 ++to 0.00113171
Heightened Def Con from 0.00113171 +++to 0.00113171
Heightened Def Con from 0.00113171 +++to 0.00113171
Heightened Def Con from 0.00113171 ++++to 0.00113171
Heightened Def Con from 0.00113171 +++++to 0.00113171
Heightened Def Con from 0.00113171 +++++to 0.00113171
Heightened Def Con from 0.00113171 +++++to 0.00113171
Heightened Def Con from 0.00113171 +++++to 0.00113171
Heightened Def Con from 0.00113171 +++++to 0.00113171
Heightened Def Con from 0.00113171 +++++to 0.00113171
Heightened Def Con from 0.00113171 ++++++to 0.00113171
Heightened Def Con from 0.00113171 ++++++to 0.00113171
Heightened Def Con from 0.00113171 ++++++to 0.00113171
Heightened Def Con from 0.00113171 ++++++to 0.00113171
Heightened Def Con from 0.00113171 ++++++to 0.00113171
Heightened Def Con from 0.00113171 ++++++to 0.00113171
Heightened Def Con from 0.00113171 ++++++to 0.00113171
Heightened Def Con from 0.00113171 +++++++to 0.00113171
Heightened Def Con from 0.00113171 +++++++to 0.00113171
Heightened Def Con from 0.00113171 +++++++to 0.00113171
Heightened Def Con from 0.00113171 +++++++to 0.00113171
Heightened Def Con from 0.00113171 +++++++to 0.00113171
Heightened Def Con from 0.00113171 +++++++to 0.00113171
Heightened Def Con from 0.00113171 +++++++to 0.00113171
Heightened Def Con from 0.00113171 +++++++to 0.00113171
Heightened Def Con from 0.00113171 +++++++to 0.00113171
Heightened Def Con from 0.00113171 ++++++++to 0.00113171
Heightened Def Con from 0.00113171 ++++++++to 0.00113171
Heightened Def Con from 0.00113171 ++++++++to 0.00113171
Heightened Def Con from 0.00113171 ++++++++to 0.00113171
Heightened Def Con from 0.00113171 ++++++++to 0.00113171
Heightened Def Con from 0.00113171 +++++++++to 0.00113171
Heightened Def Con from 0.00113171 +++++++++to 0.00113171
Heightened Def Con from 0.00113171 +++++++++to 0.00113171
Heightened Def Con from 0.00113171 +++++++++to 0.00113171
Heightened Def Con from 0.00113171 +++++++++to 0.00113171
Heightened Def Con from 0.00113171 +++++++++to 0.00113171
Heightened Def Con from 0.00113171 +++++++++to 0.00113171
Heightened Def Con from 0.00113171 +++++++++to 0.00113171
Heightened Def Con from 0.00113171 +++++++++to 0.00113171
Heightened Def Con from 0.00113171 +++++++++to 0.00113171
Heightened Def Con from 0.00121171 +to 0.00121171
Heightened Def Con from 0.00121171 ++to 0.00121171
Heightened Def Con from 0.00121171 +++to 0.00121171
Heightened Def Con from 0.00121171 +++to 0.00121171
Heightened Def Con from 0.00121171 ++++to 0.00121171
Heightened Def Con from 0.00121171 ++++to 0.00121171
Heightened Def Con from 0.00121171 ++++to 0.00121171
Heightened Def Con from 0.00121171 +++++to 0.00121171
Heightened Def Con from 0.00121171 +++++to 0.00121171
Heightened Def Con from 0.00121171 +++++to 0.00121171
Heightened Def Con from 0.00121171 +++++to 0.00121171
Heightened Def Con from 0.00121171 ++++++to 0.00121171
Heightened Def Con from 0.00121171 ++++++to 0.00121171
Heightened Def Con from 0.00121171 ++++++to 0.00121171
Heightened Def Con from 0.00121171 +++++++to 0.00121171
Heightened Def Con from 0.00121171 +++++++to 0.00121171
Heightened Def Con from 0.00121171 +++++++to 0.00121171
Heightened Def Con from 0.00121171 +++++++to 0.00121171
Heightened Def Con from 0.00121171 +++++++to 0.00121171
Heightened Def Con from 0.00121171 +++++++to 0.00121171
Heightened Def Con from 0.00121171 +++++++to 0.00121171
Heightened Def Con from 0.00121171 +++++++to 0.00121171
Heightened Def Con from 0.00121171 ++++++++to 0.00121171
Heightened Def Con from 0.00121171 ++++++++to 0.00121171
Heightened Def Con from 0.00121171 ++++++++to 0.00121171
Heightened Def Con from 0.00121171 ++++++++to 0.00121171
Heightened Def Con from 0.00121171 ++++++++to 0.00121171
Heightened Def Con from 0.00121171 +++++++++to 0.00121171
Heightened Def Con from 0.00121171 +++++++++to 0.00121171
Heightened Def Con from 0.00121171 +++++++++to 0.00121171
Heightened Def Con from 0.00121171 +++++++++to 0.00121171
Heightened Def Con from 0.00121171 +++++++++to 0.00121171
Heightened Def Con from 0.00121171 +++++++++to 0.00121171
Heightened Def Con from 0.00121171 +++++++++to 0.00121171
Heightened Def Con from 0.00121171 +++++++++to 0.00121171
Heightened Def Con from 0.00121171 +++++++++to 0.00121171
Heightened Def Con from 0.00121171 +++++++++to 0.00121171
Heightened Def Con from 0.00121171 to 0.00121171
Heightened Def Con from 0.00127171 ++++to 0.00127171
Heightened Def Con from 0.00127171 ++++to 0.00127171
Heightened Def Con from 0.00127171 +++++to 0.00127171
Heightened Def Con from 0.00127171 +++++to 0.00127171
Heightened Def Con from 0.00127171 +++++to 0.00127171
Heightened Def Con from 0.00127171 ++++++to 0.00127171
Heightened Def Con from 0.00127171 ++++++to 0.00127171
Heightened Def Con from 0.00127171 ++++++to 0.00127171
Heightened Def Con from 0.00127171 +++++++to 0.00127171
Heightened Def Con from 0.00127171 +++++++to 0.00127171
Heightened Def Con from 0.00127171 +++++++to 0.00127171
Heightened Def Con from 0.00127171 +++++++to 0.00127171
Heightened Def Con from 0.00127171 +++++++to 0.00127171
Heightened Def Con from 0.00127171 +++++++to 0.00127171
Heightened Def Con from 0.00127171 ++++++++to 0.00127171
Heightened Def Con from 0.00127171 ++++++++to 0.00127171
Heightened Def Con from 0.00127171 ++++++++to 0.00127171
Heightened Def Con from 0.00127171 ++++++++to 0.00127171
Heightened Def Con from 0.00127171 ++++++++to 0.00127171
Heightened Def Con from 0.00127171 ++++++++to 0.00127171
Heightened Def Con from 0.00127171 to 0.00127171
Heightened Def Con from 0.00128029 +to 0.00128029
Heightened Def Con from 0.00128029 ++to 0.00128029
Heightened Def Con from 0.00128029 +++to 0.00128029
Heightened Def Con from 0.00128029 +++to 0.00128029
Heightened Def Con from 0.00128029 +++to 0.00128029
Heightened Def Con from 0.00128029 ++++to 0.00128029
Heightened Def Con from 0.00128029 +++++to 0.00128029
Heightened Def Con from 0.00128029 +++++to 0.00128029
Heightened Def Con from 0.00128029 ++++++to 0.00128029
Heightened Def Con from 0.00128029 ++++++to 0.00128029
Heightened Def Con from 0.00128029 ++++++to 0.00128029
Heightened Def Con from 0.00128029 ++++++to 0.00128029
Heightened Def Con from 0.00128029 ++++++to 0.00128029
Heightened Def Con from 0.00128029 to 0.00128029
Heightened Def Con from 0.00139171 to 0.00139171
Heightened Def Con from 0.00139171 +to 0.00139171
Heightened Def Con from 0.00139171 ++to 0.00139171
Heightened Def Con from 0.00139171 +++to 0.00139171
Heightened Def Con from 0.00139171 +++to 0.00139171
Heightened Def Con from 0.00139171 ++++to 0.00139171
Heightened Def Con from 0.00139171 ++++to 0.00139171
Heightened Def Con from 0.00139171 ++++to 0.00139171
Heightened Def Con from 0.00139171 ++++to 0.00139171
Heightened Def Con from 0.00139171 +++++to 0.00139171
Heightened Def Con from 0.00139171 +++++to 0.00139171
Heightened Def Con from 0.00139171 +++++to 0.00139171
Heightened Def Con from 0.00139171 +++++to 0.00139171
Heightened Def Con from 0.00139171 +++++to 0.00139171
Heightened Def Con from 0.00141171 to 0.00141171
Heightened Def Con from 0.00141171 +to 0.00141171
Heightened Def Con from 0.00141171 to 0.00141171
Heightened Def Con from 0.00141171 ++to 0.00141171
Heightened Def Con from 0.00141171 +++to 0.00141171
Heightened Def Con from 0.00141171 ++++to 0.00141171
Heightened Def Con from 0.00141171 ++++to 0.00141171
Heightened Def Con from 0.00141171 +++++to 0.00141171
Heightened Def Con from 0.00141171 ++++++to 0.00141171
Heightened Def Con from 0.00141171 ++++++to 0.00141171
Heightened Def Con from 0.00141171 ++++++to 0.00141171
Heightened Def Con from 0.00141171 +++++++to 0.00141171
Heightened Def Con from 0.00141171 +++++++to 0.00141171
Heightened Def Con from 0.00141171 +++++++to 0.00141171
Heightened Def Con from 0.00141171 +++++++to 0.00141171
Heightened Def Con from 0.00141171 +++++++to 0.00141171
Heightened Def Con from 0.00141171 +++++++to 0.00141171
Heightened Def Con from 0.00141171 +++++++to 0.00141171
Heightened Def Con from 0.00141171 ++++++++to 0.00141171
Heightened Def Con from 0.00141171 ++++++++to 0.00141171
Heightened Def Con from 0.00141171 ++++++++to 0.00141171
Heightened Def Con from 0.00141171 ++++++++to 0.00141171
Heightened Def Con from 0.00141171 ++++++++to 0.00141171
Heightened Def Con from 0.00141171 ++++++++to 0.00141171
Heightened Def Con from 0.00141171 ++++++++to 0.00141171
Heightened Def Con from 0.00141171 +++++++++to 0.00141171
Heightened Def Con from 0.00141171 +++++++++to 0.00141171
Heightened Def Con from 0.00141171 +++++++++to 0.00141171
Heightened Def Con from 0.00141171 +++++++++to 0.00141171
Heightened Def Con from 0.00141171 +++++++++to 0.00141171
Heightened Def Con from 0.00141171 +++++++++to 0.00141171
Heightened Def Con from 0.00141171 +++++++++to 0.00141171
Heightened Def Con from 0.00141171 +++++++++to 0.00141171
Heightened Def Con from 0.00141171 +++++++++to 0.00141171
Heightened Def Con from 0.00141171 to 0.00141171
Heightened Def Con from 0.00145171 ++to 0.00145171
Heightened Def Con from 0.00145171 +++to 0.00145171
Heightened Def Con from 0.00145171 +++to 0.00145171
Heightened Def Con from 0.00145171 ++++to 0.00145171
Heightened Def Con from 0.00145171 ++++to 0.00145171
Heightened Def Con from 0.00145171 ++++to 0.00145171
Heightened Def Con from 0.00145171 ++++to 0.00145171
Heightened Def Con from 0.00145171 +++++to 0.00145171
Heightened Def Con from 0.00145171 +++++to 0.00145171
Heightened Def Con from 0.00145171 +++++to 0.00145171
Heightened Def Con from 0.00145171 +++++to 0.00145171
Heightened Def Con from 0.00145171 ++++++to 0.00145171
Heightened Def Con from 0.00145171 ++++++to 0.00145171
Heightened Def Con from 0.00145171 ++++++to 0.00145171
Heightened Def Con from 0.00145171 ++++++to 0.00145171
Heightened Def Con from 0.00145171 ++++++to 0.00145171
Heightened Def Con from 0.00145171 ++++++to 0.00145171
Heightened Def Con from 0.00145171 ++++++to 0.00145171
Heightened Def Con from 0.00145171 +++++++to 0.00145171
Heightened Def Con from 0.00145171 +++++++to 0.00145171
Heightened Def Con from 0.00145171 +++++++to 0.00145171
Heightened Def Con from 0.00145171 +++++++to 0.00145171
Heightened Def Con from 0.00145171 +++++++to 0.00145171
Heightened Def Con from 0.00145171 +++++++to 0.00145171
Heightened Def Con from 0.00145171 ++++++++to 0.00145171
Heightened Def Con from 0.00145171 ++++++++to 0.00145171
Heightened Def Con from 0.00145171 ++++++++to 0.00145171
Heightened Def Con from 0.00145171 ++++++++to 0.00145171
Heightened Def Con from 0.00145171 ++++++++to 0.00145171
Heightened Def Con from 0.00145171 +++++++++to 0.00145171
Heightened Def Con from 0.00145171 +++++++++to 0.00145171
Heightened Def Con from 0.00145171 +++++++++to 0.00145171
Heightened Def Con from 0.00145171 +++++++++to 0.00145171
Heightened Def Con from 0.00145171 +++++++++to 0.00145171
Heightened Def Con from 0.00145171 +++++++++to 0.00145171
Heightened Def Con from 0.00145171 +++++++++to 0.00145171
Heightened Def Con from 0.00145171 to 0.00145171
Heightened Def Con from 0.00149171 ++to 0.00149171
Heightened Def Con from 0.00149171 ++to 0.00149171
Heightened Def Con from 0.00149171 +++to 0.00149171
Heightened Def Con from 0.00149171 ++++to 0.00149171
Heightened Def Con from 0.00149171 +++++to 0.00149171
Heightened Def Con from 0.00149171 +++++to 0.00149171
Heightened Def Con from 0.00149171 to 0.00149171
Heightened Def Con from 0.00151171 to 0.00151171
Heightened Def Con from 0.00151171 ++to 0.00151171
Heightened Def Con from 0.00151171 +++to 0.00151171
Heightened Def Con from 0.00151171 +++to 0.00151171
Heightened Def Con from 0.00151171 ++++to 0.00151171
Heightened Def Con from 0.00151171 ++++to 0.00151171
Heightened Def Con from 0.00151171 ++++to 0.00151171
Heightened Def Con from 0.00151171 ++++to 0.00151171
Heightened Def Con from 0.00151171 +++++to 0.00151171
Heightened Def Con from 0.00151171 +++++to 0.00151171
Heightened Def Con from 0.00151171 +++++to 0.00151171
Heightened Def Con from 0.00151171 +++++to 0.00151171
Heightened Def Con from 0.00151171 ++++++to 0.00151171
Heightened Def Con from 0.00151171 ++++++to 0.00151171
Heightened Def Con from 0.00151171 ++++++to 0.00151171
Heightened Def Con from 0.00151171 ++++++to 0.00151171
Heightened Def Con from 0.00151171 ++++++to 0.00151171
Heightened Def Con from 0.00151171 ++++++to 0.00151171
Heightened Def Con from 0.00151171 ++++++to 0.00151171
Heightened Def Con from 0.00151171 +++++++to 0.00151171
Heightened Def Con from 0.00151171 +++++++to 0.00151171
Heightened Def Con from 0.00151171 +++++++to 0.00151171
Heightened Def Con from 0.00151171 +++++++to 0.00151171
Heightened Def Con from 0.00151171 +++++++to 0.00151171
Heightened Def Con from 0.00151171 +++++++to 0.00151171
Heightened Def Con from 0.00151171 +++++++to 0.00151171
Heightened Def Con from 0.00151171 +++++++to 0.00151171
Heightened Def Con from 0.00151171 ++++++++to 0.00151171
Heightened Def Con from 0.00151171 ++++++++to 0.00151171
Heightened Def Con from 0.00151171 ++++++++to 0.00151171
Heightened Def Con from 0.00151171 ++++++++to 0.00151171
Heightened Def Con from 0.00151171 ++++++++to 0.00151171
Heightened Def Con from 0.00151171 ++++++++to 0.00151171
Heightened Def Con from 0.00151171 +++++++++to 0.00151171
Heightened Def Con from 0.00151171 +++++++++to 0.00151171
Heightened Def Con from 0.00151171 +++++++++to 0.00151171
Heightened Def Con from 0.00151171 +++++++++to 0.00151171
Heightened Def Con from 0.00151171 +++++++++to 0.00151171
Heightened Def Con from 0.00151171 +++++++++to 0.00151171
Heightened Def Con from 0.00151171 +++++++++to 0.00151171
Heightened Def Con from 0.00151171 +++++++++to 0.00151171
Heightened Def Con from 0.00151171 +++++++++to 0.00151171
Heightened Def Con from 0.00151171 +++++++++to 0.00151171
Heightened Def Con from 0.00151171 +++++++++to 0.00151171
Heightened Def Con from 0.00151171 ++++++++++to 0.00151171
Heightened Def Con from 0.00151171 ++++++++++to 0.00151171
Heightened Def Con from 0.00151171 ++++++++++to 0.00151171
Heightened Def Con from 0.00151171 ++++++++++to 0.00151171
Heightened Def Con from 0.00151171 ++++++++++to 0.00151171
Heightened Def Con from 0.00151171 ++++++++++to 0.00151171
Heightened Def Con from 0.00151171 ++++++++++to 0.00151171
Heightened Def Con from 0.00151171 ++++++++++to 0.00151171
Heightened Def Con from 0.00151171 ++++++++++to 0.00151171
Heightened Def Con from 0.00151171 ++++++++++to 0.00151171
Heightened Def Con from 0.00152029 +to 0.00152029
Heightened Def Con from 0.00152029 +to 0.00152029
Heightened Def Con from 0.00152029 ++to 0.00152029
Heightened Def Con from 0.00152029 +++to 0.00152029
Heightened Def Con from 0.00152029 +++to 0.00152029
Heightened Def Con from 0.00152029 +++to 0.00152029
Heightened Def Con from 0.00152029 ++++to 0.00152029
Heightened Def Con from 0.00152029 +++++to 0.00152029
Heightened Def Con from 0.00152029 +++++to 0.00152029
Heightened Def Con from 0.00152029 ++++++to 0.00152029
Heightened Def Con from 0.00152029 ++++++to 0.00152029
Heightened Def Con from 0.00152029 ++++++to 0.00152029
Heightened Def Con from 0.00152029 ++++++to 0.00152029
Heightened Def Con from 0.00152029 ++++++to 0.00152029
Heightened Def Con from 0.00152029 +++++++to 0.00152029
Heightened Def Con from 0.00152029 +++++++to 0.00152029
Heightened Def Con from 0.00152029 +++++++to 0.00152029
Heightened Def Con from 0.00152029 +++++++to 0.00152029
Heightened Def Con from 0.00152029 +++++++to 0.00152029
Heightened Def Con from 0.00152029 +++++++to 0.00152029
Heightened Def Con from 0.00152029 +++++++to 0.00152029
Heightened Def Con from 0.00152029 +++++++to 0.00152029
Heightened Def Con from 0.00152029 ++++++++to 0.00152029
Heightened Def Con from 0.00152029 ++++++++to 0.00152029
Heightened Def Con from 0.00152029 ++++++++to 0.00152029
Heightened Def Con from 0.00152029 ++++++++to 0.00152029
Heightened Def Con from 0.00152029 ++++++++to 0.00152029
Heightened Def Con from 0.00152029 ++++++++to 0.00152029
Heightened Def Con from 0.00152029 ++++++++to 0.00152029
Heightened Def Con from 0.00152029 ++++++++to 0.00152029
Heightened Def Con from 0.00152029 +++++++++to 0.00152029
Heightened Def Con from 0.00152029 +++++++++to 0.00152029
Heightened Def Con from 0.00152029 +++++++++to 0.00152029
Heightened Def Con from 0.00152029 +++++++++to 0.00152029
Heightened Def Con from 0.00152029 +++++++++to 0.00152029
Heightened Def Con from 0.00152029 +++++++++to 0.00152029
Heightened Def Con from 0.00152029 +++++++++to 0.00152029
Heightened Def Con from 0.00155171 +to 0.00155171
Heightened Def Con from 0.00155171 ++to 0.00155171
Heightened Def Con from 0.00155171 +++to 0.00155171
Heightened Def Con from 0.00155171 ++++to 0.00155171
Heightened Def Con from 0.00155171 +++++to 0.00155171
Heightened Def Con from 0.00155171 +++++to 0.00155171
Heightened Def Con from 0.00155171 +++++to 0.00155171
Heightened Def Con from 0.00155171 ++++++to 0.00155171
Heightened Def Con from 0.00155171 ++++++to 0.00155171
Heightened Def Con from 0.00155171 ++++++to 0.00155171
Heightened Def Con from 0.00155171 ++++++to 0.00155171
Heightened Def Con from 0.00155171 ++++++to 0.00155171
Heightened Def Con from 0.00155171 ++++++to 0.00155171
Heightened Def Con from 0.00155171 +++++++to 0.00155171
Heightened Def Con from 0.00155171 +++++++to 0.00155171
[...]
Heightened Def Con from 0.00653171 +++++++++to 0.00653171
Heightened Def Con from 0.00653171 +++++++++to 0.00653171
Heightened Def Con from 0.00653171 +++++++++to 0.00653171
Heightened Def Con from 0.00653171 +++++++++to 0.00653171
Heightened Def Con from 0.00653171 +++++++++to 0.00653171
Heightened Def Con from 0.00653171 +++++++++to 0.00653171
Heightened Def Con from 0.00655171 ++++to 0.00655171
Heightened Def Con from 0.00655171 ++++to 0.00655171
Heightened Def Con from 0.00655171 +++++to 0.00655171
Heightened Def Con from 0.00655171 +++++to 0.00655171
Heightened Def Con from 0.00655171 +++++to 0.00655171
Heightened Def Con from 0.00655171 +++++to 0.00655171
Heightened Def Con from 0.00655171 ++++++to 0.00655171
Heightened Def Con from 0.00655171 ++++++to 0.00655171
Heightened Def Con from 0.00655171 ++++++to 0.00655171
Heightened Def Con from 0.00655171 ++++++to 0.00655171
Heightened Def Con from 0.00655171 ++++++to 0.00655171
Heightened Def Con from 0.00655171 +++++++to 0.00655171
Heightened Def Con from 0.00655171 +++++++to 0.00655171
Heightened Def Con from 0.00655171 +++++++to 0.00655171
Heightened Def Con from 0.00655171 +++++++to 0.00655171
Heightened Def Con from 0.00655171 +++++++to 0.00655171
Heightened Def Con from 0.00655171 +++++++to 0.00655171
Heightened Def Con from 0.00655171 ++++++++to 0.00655171
Heightened Def Con from 0.00655171 ++++++++to 0.00655171
Heightened Def Con from 0.00655171 ++++++++to 0.00655171
Heightened Def Con from 0.00655171 ++++++++to 0.00655171
Heightened Def Con from 0.00655171 ++++++++to 0.00655171
Heightened Def Con from 0.00655171 ++++++++to 0.00655171
Heightened Def Con from 0.00655171 ++++++++to 0.00655171
Heightened Def Con from 0.00655171 +++++++++to 0.00655171
Heightened Def Con from 0.00655171 +++++++++to 0.00655171
Heightened Def Con from 0.00655171 +++++++++to 0.00655171
Heightened Def Con from 0.00655171 +++++++++to 0.00655171
Heightened Def Con from 0.00655171 +++++++++to 0.00655171
Heightened Def Con from 0.00655171 +++++++++to 0.00655171
Heightened Def Con from 0.00655171 +++++++++to 0.00655171
Heightened Def Con from 0.00655171 to 0.00655171
Heightened Def Con from 0.00657171 ++to 0.00657171
Heightened Def Con from 0.00657171 ++++to 0.00657171
Heightened Def Con from 0.00657171 +++to 0.00657171
Heightened Def Con from 0.00657171 ++++to 0.00657171
Heightened Def Con from 0.00657171 +++++to 0.00657171
Heightened Def Con from 0.00657171 +++++to 0.00657171
Heightened Def Con from 0.00657171 ++++++to 0.00657171
Heightened Def Con from 0.00657171 ++++++to 0.00657171
Heightened Def Con from 0.00657171 ++++++to 0.00657171
Heightened Def Con from 0.00657171 +++++++to 0.00657171
Heightened Def Con from 0.00657171 ++++++to 0.00657171
Heightened Def Con from 0.00657171 ++++++to 0.00657171
Heightened Def Con from 0.00657171 ++++++++to 0.00657171
Heightened Def Con from 0.00657171 ++++++++to 0.00657171
Heightened Def Con from 0.00657171 ++++++++to 0.00657171
Heightened Def Con from 0.00657171 to 0.00657171
Heightened Def Con from 0.00659171 +to 0.00659171
Heightened Def Con from 0.00659171 ++to 0.00659171
Heightened Def Con from 0.00659171 +++to 0.00659171
Heightened Def Con from 0.00659171 +++to 0.00659171
Heightened Def Con from 0.00659171 ++++to 0.00659171
Heightened Def Con from 0.00659171 ++++to 0.00659171
Heightened Def Con from 0.00659171 ++++to 0.00659171
Heightened Def Con from 0.00659171 +++++to 0.00659171
Heightened Def Con from 0.00659171 +++++to 0.00659171
Heightened Def Con from 0.00659171 +++++to 0.00659171
Heightened Def Con from 0.00659171 +++++to 0.00659171
Heightened Def Con from 0.00659171 ++++++to 0.00659171
Heightened Def Con from 0.00659171 ++++++to 0.00659171
Heightened Def Con from 0.00659171 ++++++to 0.00659171
Heightened Def Con from 0.00659171 ++++++to 0.00659171
Heightened Def Con from 0.00659171 +++++++to 0.00659171
Heightened Def Con from 0.00659171 +++++++to 0.00659171
Heightened Def Con from 0.00659171 +++++++to 0.00659171
Heightened Def Con from 0.00659171 +++++++to 0.00659171
Heightened Def Con from 0.00659171 +++++++to 0.00659171
Heightened Def Con from 0.00659171 +++++++to 0.00659171
Heightened Def Con from 0.00659171 ++++++++to 0.00659171
Heightened Def Con from 0.00659171 ++++++++to 0.00659171
Heightened Def Con from 0.00659171 ++++++++to 0.00659171
Heightened Def Con from 0.00659171 +++++++++to 0.00659171
Heightened Def Con from 0.00659171 +++++++++to 0.00659171
Heightened Def Con from 0.00659171 +++++++++to 0.00659171
Heightened Def Con from 0.00661171 +to 0.00661171
Heightened Def Con from 0.00661171 ++to 0.00661171
Heightened Def Con from 0.00661171 +++to 0.00661171
Heightened Def Con from 0.00661171 +++++to 0.00661171
Heightened Def Con from 0.00661171 +++++to 0.00661171
Heightened Def Con from 0.00661171 +++++to 0.00661171
Heightened Def Con from 0.00661171 ++++++to 0.00661171
Heightened Def Con from 0.00661171 ++++++to 0.00661171
Heightened Def Con from 0.00661171 ++++++to 0.00661171
Heightened Def Con from 0.00661171 +++++++to 0.00661171
Heightened Def Con from 0.00661171 +++++++to 0.00661171
Heightened Def Con from 0.00661171 +++++++to 0.00661171
Heightened Def Con from 0.00661171 +++++++to 0.00661171
Heightened Def Con from 0.00661171 +++++++to 0.00661171
Heightened Def Con from 0.00661171 +++++++to 0.00661171
Heightened Def Con from 0.00661171 +++++++to 0.00661171
Heightened Def Con from 0.00661171 +++++++to 0.00661171
Heightened Def Con from 0.00661171 ++++++++to 0.00661171
Heightened Def Con from 0.00661171 ++++++++to 0.00661171
Heightened Def Con from 0.00661171 ++++++++to 0.00661171
Heightened Def Con from 0.00661171 ++++++++to 0.00661171
Heightened Def Con from 0.00661171 ++++++++to 0.00661171
Heightened Def Con from 0.00661171 ++++++++to 0.00661171
Heightened Def Con from 0.00661171 +++++++++to 0.00661171
Heightened Def Con from 0.00661171 +++++++++to 0.00661171
Heightened Def Con from 0.00661171 ++++++++++to 0.00661171
Heightened Def Con from 0.00661171 ++++++++++to 0.00661171
Heightened Def Con from 0.00661171 ++++++++++to 0.00661171
Heightened Def Con from 0.00661171 ++++++++++to 0.00661171
Heightened Def Con from 0.00661171 ++++++++++to 0.00661171
Heightened Def Con from 0.00661171 ++++++++++to 0.00661171
Heightened Def Con from 0.00661171 ++++++++++to 0.00661171
Heightened Def Con from 0.00661171 ++++++++++to 0.00661171
Heightened Def Con from 0.00663171 ++to 0.00663171
Heightened Def Con from 0.00663171 +++to 0.00663171
Heightened Def Con from 0.00663171 +++to 0.00663171
Heightened Def Con from 0.00663171 ++++to 0.00663171
Heightened Def Con from 0.00663171 ++++to 0.00663171
Heightened Def Con from 0.00663171 ++++to 0.00663171
Heightened Def Con from 0.00663171 ++++to 0.00663171
Heightened Def Con from 0.00663171 +++++to 0.00663171
Heightened Def Con from 0.00663171 +++++to 0.00663171
Heightened Def Con from 0.00663171 +++++to 0.00663171
Heightened Def Con from 0.00663171 +++++to 0.00663171
Heightened Def Con from 0.00663171 ++++++to 0.00663171
Heightened Def Con from 0.00663171 ++++++to 0.00663171
Heightened Def Con from 0.00663171 ++++++to 0.00663171
Heightened Def Con from 0.00663171 ++++++to 0.00663171
Heightened Def Con from 0.00663171 +++++++to 0.00663171
Heightened Def Con from 0.00663171 +++++++to 0.00663171
Heightened Def Con from 0.00663171 +++++++to 0.00663171
Heightened Def Con from 0.00663171 +++++++to 0.00663171
Heightened Def Con from 0.00663171 +++++++to 0.00663171
Heightened Def Con from 0.00663171 +++++++to 0.00663171
Heightened Def Con from 0.00663171 ++++++++to 0.00663171
Heightened Def Con from 0.00663171 +++++++++to 0.00663171
Heightened Def Con from 0.00663171 +++++++++to 0.00663171
Heightened Def Con from 0.00663171 +++++++++to 0.00663171
Heightened Def Con from 0.00663171 +++++++++to 0.00663171
Heightened Def Con from 0.00663171 +++++++++to 0.00663171
Heightened Def Con from 0.00666029 to 0.00666029
Heightened Def Con from 0.00666029 ++to 0.00666029
Heightened Def Con from 0.00666029 +++to 0.00666029
Heightened Def Con from 0.00666029 ++++to 0.00666029
Heightened Def Con from 0.00666029 ++++to 0.00666029
Heightened Def Con from 0.00666029 ++++to 0.00666029
Heightened Def Con from 0.00666029 +++++to 0.00666029
Heightened Def Con from 0.00666029 +++++to 0.00666029
Heightened Def Con from 0.00666029 ++++++to 0.00666029
Heightened Def Con from 0.00666029 ++++++to 0.00666029
Heightened Def Con from 0.00666029 ++++++to 0.00666029
Heightened Def Con from 0.00666029 ++++++to 0.00666029
Heightened Def Con from 0.00666029 ++++++to 0.00666029
Heightened Def Con from 0.00666029 +++++++to 0.00666029
Heightened Def Con from 0.00666029 +++++++to 0.00666029
Heightened Def Con from 0.00666029 +++++++to 0.00666029
Heightened Def Con from 0.00666029 +++++++to 0.00666029
Heightened Def Con from 0.00666029 +++++++to 0.00666029
Heightened Def Con from 0.00666029 +++++++to 0.00666029
Heightened Def Con from 0.00666029 +++++++to 0.00666029
Heightened Def Con from 0.00666029 +++++++to 0.00666029
Heightened Def Con from 0.00666029 +++++++to 0.00666029
Heightened Def Con from 0.00666029 ++++++++to 0.00666029
Heightened Def Con from 0.00666029 ++++++++to 0.00666029
Heightened Def Con from 0.00666029 ++++++++to 0.00666029
Heightened Def Con from 0.00666029 ++++++++to 0.00666029
Heightened Def Con from 0.00666029 ++++++++to 0.00666029
Heightened Def Con from 0.00666029 ++++++++to 0.00666029
Heightened Def Con from 0.00666029 ++++++++to 0.00666029
Heightened Def Con from 0.00666029 ++++++++to 0.00666029
Heightened Def Con from 0.00667171 +to 0.00667171
Heightened Def Con from 0.00667171 +to 0.00667171
Heightened Def Con from 0.00667171 ++to 0.00667171
Heightened Def Con from 0.00667171 +++to 0.00667171
Heightened Def Con from 0.00667171 +++to 0.00667171
Heightened Def Con from 0.00667171 +++to 0.00667171
Heightened Def Con from 0.00667171 ++++to 0.00667171
Heightened Def Con from 0.00667171 ++++to 0.00667171
Heightened Def Con from 0.00667171 +++++to 0.00667171
Heightened Def Con from 0.00667171 ++++++to 0.00667171
Heightened Def Con from 0.00667171 ++++++to 0.00667171
Heightened Def Con from 0.00667171 ++++++to 0.00667171
Heightened Def Con from 0.00667171 ++++++to 0.00667171
Heightened Def Con from 0.00667171 ++++++to 0.00667171
Heightened Def Con from 0.00667171 +++++++to 0.00667171
Heightened Def Con from 0.00667171 +++++++to 0.00667171
Heightened Def Con from 0.00667171 +++++++to 0.00667171
Heightened Def Con from 0.00667171 +++++++to 0.00667171
Heightened Def Con from 0.00667171 +++++++to 0.00667171
Heightened Def Con from 0.00667171 +++++++to 0.00667171
Heightened Def Con from 0.00667171 +++++++to 0.00667171
Heightened Def Con from 0.00667171 +++++++to 0.00667171
Heightened Def Con from 0.00667171 +++++++to 0.00667171
Heightened Def Con from 0.00667171 ++++++++to 0.00667171
Heightened Def Con from 0.00667171 ++++++++to 0.00667171
Heightened Def Con from 0.00667171 ++++++++to 0.00667171
Heightened Def Con from 0.00667171 ++++++++to 0.00667171
Heightened Def Con from 0.00667171 ++++++++to 0.00667171
Heightened Def Con from 0.00667171 +++++++++to 0.00667171
Heightened Def Con from 0.00667171 +++++++++to 0.00667171
Heightened Def Con from 0.00667171 +++++++++to 0.00667171
Heightened Def Con from 0.00667171 +++++++++to 0.00667171
Heightened Def Con from 0.00667171 +++++++++to 0.00667171
Heightened Def Con from 0.00667171 +++++++++to 0.00667171
Heightened Def Con from 0.00667171 +++++++++to 0.00667171
Heightened Def Con from 0.00667171 +++++++++to 0.00667171
Heightened Def Con from 0.00667171 +++++++++to 0.00667171
Heightened Def Con from 0.00667171 ++++++++++to 0.00667171
Heightened Def Con from 0.00667171 ++++++++++to 0.00667171
Heightened Def Con from 0.00667171 ++++++++++to 0.00667171
Heightened Def Con from 0.00667171 ++++++++++to 0.00667171
Heightened Def Con from 0.00667171 ++++++++++to 0.00667171
Heightened Def Con from 0.00667171 ++++++++++to 0.00667171
Heightened Def Con from 0.00667171 ++++++++++to 0.00667171
Heightened Def Con from 0.00667171 ++++++++++to 0.00667171
Heightened Def Con from 0.00667171 ++++++++++to 0.00667171
Heightened Def Con from 0.00667171 ++++++++++to 0.00667171
Heightened Def Con from 0.00669171 +to 0.00669171
Heightened Def Con from 0.00669171 ++to 0.00669171
Heightened Def Con from 0.00669171 +++to 0.00669171
Heightened Def Con from 0.00669171 +++to 0.00669171
Heightened Def Con from 0.00669171 ++++to 0.00669171
Heightened Def Con from 0.00669171 ++++to 0.00669171
Heightened Def Con from 0.00669171 ++++to 0.00669171
Heightened Def Con from 0.00669171 ++++to 0.00669171
Heightened Def Con from 0.00669171 +++++to 0.00669171
Heightened Def Con from 0.00669171 +++++to 0.00669171
Heightened Def Con from 0.00669171 +++++to 0.00669171
Heightened Def Con from 0.00669171 ++++++to 0.00669171
Heightened Def Con from 0.00669171 ++++++to 0.00669171
Heightened Def Con from 0.00669171 ++++++to 0.00669171
Heightened Def Con from 0.00669171 ++++++to 0.00669171
Heightened Def Con from 0.00669171 ++++++to 0.00669171
Heightened Def Con from 0.00669171 ++++++to 0.00669171
Heightened Def Con from 0.00669171 +++++++to 0.00669171
Heightened Def Con from 0.00669171 +++++++to 0.00669171
Heightened Def Con from 0.00669171 +++++++to 0.00669171
Heightened Def Con from 0.00669171 +++++++to 0.00669171
Heightened Def Con from 0.00669171 +++++++to 0.00669171
Heightened Def Con from 0.00669171 +++++++to 0.00669171
Heightened Def Con from 0.00669171 ++++++++to 0.00669171
Heightened Def Con from 0.00669171 ++++++++to 0.00669171
Heightened Def Con from 0.00669171 ++++++++to 0.00669171
Heightened Def Con from 0.00669171 ++++++++to 0.00669171
Heightened Def Con from 0.00669171 ++++++++to 0.00669171
Heightened Def Con from 0.00669171 +++++++++to 0.00669171
Heightened Def Con from 0.00669171 +++++++++to 0.00669171
Heightened Def Con from 0.00669171 +++++++++to 0.00669171
Heightened Def Con from 0.00669171 +++++++++to 0.00669171
Heightened Def Con from 0.00669171 +++++++++to 0.00669171
Heightened Def Con from 0.00669171 +++++++++to 0.00669171
Heightened Def Con from 0.00669171 +++++++++to 0.00669171
Heightened Def Con from 0.00669171 +++++++++to 0.00669171
Heightened Def Con from 0.00669171 +++++++++to 0.00669171
Heightened Def Con from 0.00669171 to 0.00669171
Heightened Def Con from 0.00673171 ++to 0.00673171
Heightened Def Con from 0.00673171 +++to 0.00673171
Heightened Def Con from 0.00673171 +++to 0.00673171
Heightened Def Con from 0.00673171 ++++to 0.00673171
Heightened Def Con from 0.00673171 ++++to 0.00673171
Heightened Def Con from 0.00673171 ++++to 0.00673171
Heightened Def Con from 0.00673171 ++++to 0.00673171
Heightened Def Con from 0.00673171 +++++to 0.00673171
Heightened Def Con from 0.00673171 +++++to 0.00673171
Heightened Def Con from 0.00673171 +++++to 0.00673171
Heightened Def Con from 0.00673171 ++++++to 0.00673171
Heightened Def Con from 0.00673171 ++++++to 0.00673171
Heightened Def Con from 0.00673171 ++++++to 0.00673171
Heightened Def Con from 0.00673171 +++++++to 0.00673171
Heightened Def Con from 0.00673171 +++++++to 0.00673171
Heightened Def Con from 0.00673171 +++++++to 0.00673171
Heightened Def Con from 0.00673171 +++++++to 0.00673171
Heightened Def Con from 0.00673171 +++++++to 0.00673171
Heightened Def Con from 0.00673171 +++++++to 0.00673171
Heightened Def Con from 0.00673171 +++++++to 0.00673171
Heightened Def Con from 0.00673171 +++++++to 0.00673171
Heightened Def Con from 0.00673171 ++++++++to 0.00673171
Heightened Def Con from 0.00673171 ++++++++to 0.00673171
Heightened Def Con from 0.00673171 ++++++++to 0.00673171
Heightened Def Con from 0.00673171 ++++++++to 0.00673171
Heightened Def Con from 0.00673171 ++++++++to 0.00673171
Heightened Def Con from 0.00673171 +++++++++to 0.00673171
Heightened Def Con from 0.00673171 +++++++++to 0.00673171
Heightened Def Con from 0.00673171 +++++++++to 0.00673171
Heightened Def Con from 0.00673171 +++++++++to 0.00673171
Heightened Def Con from 0.00673171 +++++++++to 0.00673171
Heightened Def Con from 0.00673171 +++++++++to 0.00673171
Heightened Def Con from 0.00673171 +++++++++to 0.00673171
Heightened Def Con from 0.00673171 +++++++++to 0.00673171
Heightened Def Con from 0.00673171 +++++++++to 0.00673171
Heightened Def Con from 0.00673171 to 0.00673171
Heightened Def Con from 0.00675171 to 0.00675171
Heightened Def Con from 0.00675171 ++to 0.00675171
Heightened Def Con from 0.00675171 +++to 0.00675171
Heightened Def Con from 0.00675171 +++to 0.00675171
Heightened Def Con from 0.00675171 ++++to 0.00675171
Heightened Def Con from 0.00675171 ++++to 0.00675171
Heightened Def Con from 0.00675171 +++++to 0.00675171
Heightened Def Con from 0.00675171 +++++to 0.00675171
Heightened Def Con from 0.00675171 +++++to 0.00675171
Heightened Def Con from 0.00675171 ++++++to 0.00675171
Heightened Def Con from 0.00675171 ++++++to 0.00675171
Heightened Def Con from 0.00675171 ++++++to 0.00675171
Heightened Def Con from 0.00675171 to 0.00675171
Heightened Def Con from 0.00677171 +to 0.00677171
Heightened Def Con from 0.00677171 ++to 0.00677171
Heightened Def Con from 0.00677171 +++to 0.00677171
Heightened Def Con from 0.00677171 +++to 0.00677171
Heightened Def Con from 0.00677171 ++++to 0.00677171
Heightened Def Con from 0.00677171 ++++to 0.00677171
Heightened Def Con from 0.00677171 +++++to 0.00677171
Heightened Def Con from 0.00677171 +++++to 0.00677171
Heightened Def Con from 0.00677171 ++++++to 0.00677171
Heightened Def Con from 0.00677171 ++++++to 0.00677171
Heightened Def Con from 0.00677171 ++++++to 0.00677171
Heightened Def Con from 0.00677171 +++++++to 0.00677171
Heightened Def Con from 0.00677171 +++++++to 0.00677171
Heightened Def Con from 0.00677171 +++++++to 0.00677171
Heightened Def Con from 0.00677171 +++++++to 0.00677171
Heightened Def Con from 0.00677171 +++++++to 0.00677171
Heightened Def Con from 0.00677171 +++++++to 0.00677171
Heightened Def Con from 0.00677171 ++++++++to 0.00677171
Heightened Def Con from 0.00677171 ++++++++to 0.00677171
Heightened Def Con from 0.00677171 ++++++++to 0.00677171
Heightened Def Con from 0.00677171 ++++++++to 0.00677171
Heightened Def Con from 0.00677171 ++++++++to 0.00677171
Heightened Def Con from 0.00677171 +++++++++to 0.00677171
Heightened Def Con from 0.00677171 +++++++++to 0.00677171
Heightened Def Con from 0.00677171 +++++++++to 0.00677171
Heightened Def Con from 0.00677171 +++++++++to 0.00677171
Heightened Def Con from 0.00677171 +++++++++to 0.00677171
Heightened Def Con from 0.00677171 +++++++++to 0.00677171
Heightened Def Con from 0.00677171 +++++++++to 0.00677171
Heightened Def Con from 0.00677171 +++++++++to 0.00677171
Heightened Def Con from 0.00677171 +++++++++to 0.00677171
Heightened Def Con from 0.00677171 ++++++++++to 0.00677171
Heightened Def Con from 0.00677171 ++++++++++to 0.00677171
Heightened Def Con from 0.00677171 ++++++++++to 0.00677171
Heightened Def Con from 0.00677171 ++++++++++to 0.00677171
Heightened Def Con from 0.00677171 ++++++++++to 0.00677171
Heightened Def Con from 0.00677171 ++++++++++to 0.00677171
Heightened Def Con from 0.00677171 ++++++++++to 0.00677171
Heightened Def Con from 0.00677171 ++++++++++to 0.00677171
Heightened Def Con from 0.00677171 ++++++++++to 0.00677171
Heightened Def Con from 0.00677171 ++++++++++to 0.00677171
Heightened Def Con from 0.00677171 ++++++++++to 0.00677171
Heightened Def Con from 0.00677171 +++++++++++to 0.00677171
Heightened Def Con from 0.00677171 +++++++++++to 0.00677171
Heightened Def Con from 0.00677171 +++++++++++to 0.00677171
Heightened Def Con from 0.00677171 +++++++++++to 0.00677171
Heightened Def Con from 0.00677171 +++++++++++to 0.00677171
Heightened Def Con from 0.00678887 to 0.00678887

Date: Mon Mar 21 23:49:07 2022
Total elapsed time: 30.148 seconds.

tnom = 27
temp = 27
method = modified trap
totiter = 4286719
traniter = 4286703
tranpoints = 494405
accept = 148689
rejected = 377762
matrix size = 24
fillins = 7
solver = Normal
Matrix Compiler1: 1.34 KB object code size  1.4/1.2/[0.6]
Matrix Compiler2: off  [0.8]/1.2/2.4

