Circuit: * Z:\UNC\2022\powerElectronics\TPT5\convDCACDC.asc

WARNING: Less than two connections to node SHTDWN.  This node is used by R:U1:13.
WARNING: Less than two connections to node OSC.  This node is used by R:U1:18.
Direct Newton iteration failed to find .op point.  (Use ".option noopiter" to skip.)
Starting Gmin stepping
Gmin = 10
Gmin = 1.07374
Gmin = 0.115292
Gmin = 0.0123794
Gmin = 0.00132923
Gmin = 0.000142725
Gmin = 1.5325e-005
Gmin = 1.6455e-006
Gmin = 1.76685e-007
Gmin = 1.89714e-008
Gmin = 2.03704e-009
Gmin = 2.18725e-010
Gmin = 2.34854e-011
Gmin = 2.52173e-012
Gmin = 2.70769e-013
Gmin = 0
Gmin stepping succeeded in finding the operating point.

Ignoring empty pin current: Ix(u1:gnd)
Ignoring empty pin current: Ix(u1:gnd)

Date: Fri Apr 15 18:36:52 2022
Total elapsed time: 2.357 seconds.

tnom = 27
temp = 27
method = modified trap
totiter = 66740
traniter = 66348
tranpoints = 19427
accept = 14047
rejected = 5380
matrix size = 68
fillins = 9
solver = Normal
Thread vector: 10.7/10.6[2] 8.0/5.1[2] 1.9/2.2[1] 1.4/2.4[1]  2592/500
Matrix Compiler1: 3.31 KB object code size  2.4/1.7/[0.7]
Matrix Compiler2: off  [1.6]/3.2/9.3

