Questionable use of curly braces in "b1 t 0 v={time}"
    Error: undefined symbol in: "[time]"
Circuit: * Z:\UNC\2022\powerElectronics\TPT7\sim\trifControlado.asc

WARNING: Less than two connections to node N002.  This node is used by V4.
WARNING: Less than two connections to node T.  This node is used by B1.
Direct Newton iteration for .op point succeeded.
Heightened Def Con from 1.875e-014 to 1.41406e-013
Heightened Def Con from 8.77344e-013 to 1e-012
Heightened Def Con from 1.96641e-012 to 2.00197e-009
Heightened Def Con from 0.001 to 0.001
Heightened Def Con from 0.001 to 0.001
Heightened Def Con from 0.001 to 0.001

Date: Wed May 11 18:17:34 2022
Total elapsed time: 0.213 seconds.

tnom = 27
temp = 27
method = modified trap
totiter = 2990
traniter = 2981
tranpoints = 1157
accept = 1108
rejected = 55
matrix size = 169
fillins = 138
solver = Normal
Thread vector: 46.2/28.6[3] 6.6/4.0[3] 23.2/5.9[3] 3.3/4.4[1]  2592/500
Matrix Compiler1: 12.43 KB object code size  10.8/8.1/[3.4]
Matrix Compiler2: off  [4.1]/6.2/11.5

