Questionable use of curly braces in "b2 test 0  v=v(in) laplace = {((-s*{k0})/(s**2+{a0}*s+{b0}))*((-s*{k1})/(s**2+{a1}*s+{b1}))}"
    Error: undefined symbol in: "((-[s]*(k0))/(s**2+(a0)*s+(b0)))*((-s*(k1))/(s**2+(a1)*s+(b1)))"
Circuit: * Z:\sintesis\filtros\sallenKeyBP.asc

WARNING: Less than two connections to node TEST.  This node is used by B2.
Direct Newton iteration for .op point succeeded.

Date: Mon Jul 18 16:51:05 2022
Total elapsed time: 0.122 seconds.

tnom = 27
temp = 27
method = trap
totiter = 3
traniter = 0
tranpoints = 0
accept = 0
rejected = 0
matrix size = 17
fillins = 6
solver = Normal
Matrix Compiler1:      60 opcodes
Matrix Compiler2: 1.41 KB object code size
