Circuit: * Z:\UNC\2022\powerElectronics\TPT5\sim\convDCACDC.asc

WARNING: Node NC_03 is floating.

WARNING: Less than two connections to node SHTDWN.  This node is used by R:U1:13.
WARNING: Less than two connections to node OSC.  This node is used by R:U1:18.
WARNING: Less than two connections to node NC_01.  This node is used by D5.
WARNING: Less than two connections to node NC_02.  This node is used by L4.
WARNING: Less than two connections to node NC_03.  This node is used by R7.
Direct Newton iteration failed to find .op point.  (Use ".option noopiter" to skip.)
Starting Gmin stepping
Gmin = 10
Gmin = 1.07374
Gmin = 0.115292
Gmin = 0.0123794
Gmin = 0.00132923
Gmin = 0.000142725
Gmin = 1.5325e-005
vernier = 0.5
Gmin = 4.35418e-006
vernier = 0.666667
vernier = 0.888888
Gmin = 7.73794e-007
vernier = 1
Gmin = 8.6905e-008
Gmin = 9.33136e-009
Gmin = 1.00195e-009
Gmin = 1.07583e-010
Gmin = 1.15517e-011
Gmin = 1.24035e-012
Gmin = 1.33182e-013
Gmin = 0
Gmin stepping succeeded in finding the operating point.

Ignoring empty pin current: Ix(u1:gnd)
Ignoring empty pin current: Ix(u1:gnd)
Heightened Def Con from 2.69689e-005 to 2.69689e-005
Heightened Def Con from 7.6301e-005 to 7.6301e-005
Heightened Def Con from 0.00709068 to 0.00709068

Date: Tue May 03 06:11:34 2022
Total elapsed time: 8.898 seconds.

tnom = 27
temp = 27
method = modified trap
totiter = 266636
traniter = 266065
tranpoints = 51280
accept = 38546
rejected = 12737
matrix size = 85
fillins = 8
solver = Normal
Thread vector: 19.6/17.6[2] 9.7/6.2[2] 1.5/2.6[1] 1.2/1.9[1]  2592/500
Matrix Compiler1: 3.87 KB object code size  3.2/2.6/[1.1]
Matrix Compiler2: off  [1.5]/2.7/9.8

