Questionable use of curly braces in "b2 test 0  v=v(in) laplace = {((-s*{k0})/(s**2+{a0}*s+{b0}))*((-s*{k1})/(s**2+{a1}*s+{b1}))}"
    Error: undefined symbol in: "((-[s]*(k0))/(s**2+(a0)*s+(b0)))*((-s*(k1))/(s**2+(a1)*s+(b1)))"
Circuit: * Z:\sintesis\lab4\mixFeedbackBP.asc

WARNING: Node NC_02 is floating.

WARNING: Less than two connections to node TEST.  This node is used by B2.
WARNING: Less than two connections to node NC_01.  This node is used by R11.
WARNING: Less than two connections to node NC_02.  This node is used by R13.
Direct Newton iteration for .op point succeeded.

Date: Mon Jul 18 21:30:33 2022
Total elapsed time: 0.050 seconds.

tnom = 27
temp = 27
method = trap
totiter = 3
traniter = 0
tranpoints = 0
accept = 0
rejected = 0
matrix size = 18
fillins = 3
solver = Normal
Matrix Compiler1:      52 opcodes
Matrix Compiler2: 1.32 KB object code size
