Questionable use of curly braces in "b2 lapl 0  v=v(in) laplace = {((s*{k1})/(s**2+{a1}*s+{b1}))*((s*{k2})/(s**2+{a2}*s+{b2}))}"
    Error: undefined symbol in: "(([s]*(k1))/(s**2+(a1)*s+(b1)))*((s*(k2))/(s**2+(a2)*s+(b2)))"
Circuit: * Z:\sintesis\lab4\mixFeedbackBP.asc

WARNING: Less than two connections to node LAPL.  This node is used by B2.
Direct Newton iteration for .op point succeeded.

Date: Mon Sep 26 14:27:19 2022
Total elapsed time: 0.168 seconds.

tnom = 27
temp = 27
method = trap
totiter = 3
traniter = 0
tranpoints = 0
accept = 0
rejected = 0
matrix size = 17
fillins = 3
solver = Normal
Matrix Compiler1:      55 opcodes
Matrix Compiler2: 1.38 KB object code size
