Circuit: * Z:\UNC\2022\powerElectronics\TPT3\rectificPolif.asc

WARNING: Node NC_02 is floating.

WARNING: Less than two connections to node NC_01.  This node is used by L1.
WARNING: Less than two connections to node NC_02.  This node is used by L1.
Direct Newton iteration for .op point succeeded.

idav: AVG(i(da1))=54.1858 FROM 0 TO 0.5
idef: RMS(i(da1))=93.7768 FROM 0 TO 0.5
io: AVG(i(r1))=162.558 FROM 0 TO 0.5
vo: AVG(v(vo,n001))=162.558 FROM 0 TO 0.5
vrrm: MIN(v(a,vo))=-171.712 FROM 0 TO 0.5
is: RMS(i(va))=132.346 FROM 0 TO 0.5


Date: Tue Apr 05 14:34:13 2022
Total elapsed time: 0.242 seconds.

tnom = 27
temp = 27
method = modified trap
totiter = 13552
traniter = 13543
tranpoints = 3247
accept = 2646
rejected = 601
matrix size = 10
fillins = 0
solver = Normal
Matrix Compiler1: 436 bytes object code size  0.5/0.5/[0.3]
Matrix Compiler2: off  [0.3]/0.6/0.7

