Circuit: * Z:\UNC\2022\powerElectronics\TPT3\rectificPolif.asc

Direct Newton iteration failed to find .op point.  (Use ".option noopiter" to skip.)
Starting Gmin stepping
Gmin = 10
Gmin = 1.07374
Gmin = 0.115292
Gmin = 0.0123794
Gmin = 0.00132923
Gmin = 0.000142725
Gmin = 1.5325e-005
Gmin = 1.6455e-006
Gmin = 1.76685e-007
Gmin = 1.89714e-008
Gmin = 2.03704e-009
Gmin = 2.18725e-010
Gmin = 2.34854e-011
Gmin = 2.52173e-012
Gmin = 2.70769e-013
Gmin = 0
Gmin stepping succeeded in finding the operating point.


idav: AVG(i(da1))=2.83773e+013 FROM 0 TO 0.5
idef: RMS(i(da1))=4.50231e+013 FROM 0 TO 0.5
io: AVG(i(l1))=8.51319e+013 FROM 0 TO 0.5
vo: AVG(v(vo,n001))=12.7063 FROM 0 TO 0.5
vrrm: MIN(v(a,vo))=-106.002 FROM 0 TO 0.5
is: RMS(i(va))=6.36721e+013 FROM 0 TO 0.5


Date: Wed Apr 06 20:44:50 2022
Total elapsed time: 0.797 seconds.

tnom = 27
temp = 27
method = modified trap
totiter = 120657
traniter = 119943
tranpoints = 17224
accept = 12923
rejected = 4301
matrix size = 8
fillins = 0
solver = Normal
Matrix Compiler1: 390 bytes object code size  0.3/0.2/[0.1]
Matrix Compiler2: off  [0.2]/0.3/1.1

