Circuit: * Z:\UNC\2022\powerElectronics\TPT3\rectificPolif.asc

Direct Newton iteration for .op point succeeded.

idav: AVG(i(da1))=54.4422 FROM 0 TO 0.5
idef: RMS(i(da1))=94.1178 FROM 0 TO 0.5
io: AVG(i(l1))=163.358 FROM 0 TO 0.5
vo: AVG(v(vo,n001))=162.558 FROM 0 TO 0.5
vrrm: MIN(v(a,vo))=-171.713 FROM 0 TO 0.5


Date: Mon Apr 04 19:42:45 2022
Total elapsed time: 0.206 seconds.

tnom = 27
temp = 27
method = modified trap
totiter = 13552
traniter = 13543
tranpoints = 3247
accept = 2646
rejected = 601
matrix size = 8
fillins = 0
solver = Normal
Matrix Compiler1: 372 bytes object code size  0.4/0.4/[0.2]
Matrix Compiler2: off  [0.3]/0.4/0.6

