Circuit: * Z:\UNC\2022\powerElectronics\TPT3\rectificPolif.asc

Direct Newton iteration for .op point succeeded.

Date: Fri Apr 01 23:27:45 2022
Total elapsed time: 0.126 seconds.

tnom = 27
temp = 27
method = modified trap
totiter = 2157
traniter = 2146
tranpoints = 1042
accept = 1042
rejected = 0
matrix size = 8
fillins = 0
solver = Normal
Matrix Compiler1: 282 bytes object code size  0.3/0.2/[0.2]
Matrix Compiler2: off  [0.2]/0.3/0.6

