Circuit: * Z:\UNC\2022\powerElectronics\TPT3\rectifHexafasico.asc

Direct Newton iteration for .op point succeeded.

isav: AVG(abs(i(a)))=15.914 FROM 0 TO 0.1
vsav: AVG(v(a))=-0.000239928 FROM 0 TO 0.1
isrms: RMS(abs(i(a)))=38.9075 FROM 0 TO 0.1
vsrms: RMS(v(a))=354.033 FROM 0 TO 0.1


Date: Wed Apr 06 10:27:42 2022
Total elapsed time: 0.170 seconds.

tnom = 27
temp = 27
method = modified trap
totiter = 3708
traniter = 3696
tranpoints = 1317
accept = 1240
rejected = 77
matrix size = 13
fillins = 0
solver = Normal
Matrix Compiler1: 406 bytes object code size  0.4/0.3/[0.2]
Matrix Compiler2: off  [0.2]/0.5/0.8

