Circuit: * Z:\UNC\2022\powerElectronics\TPT2\compDiodos.asc

Warning: Multiple definitions of model "1n4148" Type: Diode
Direct Newton iteration for .op point succeeded.

Date: Tue Mar 29 14:36:30 2022
Total elapsed time: 0.139 seconds.

tnom = 27
temp = 27
method = modified trap
totiter = 2269
traniter = 2261
tranpoints = 1115
accept = 1097
rejected = 18
matrix size = 10
fillins = 0
solver = Normal
Matrix Compiler1: 310 bytes object code size  0.3/0.2/[0.2]
Matrix Compiler2: off  [0.2]/0.3/0.5

