Circuit: * Z:\UNC\2022\powerElectronics\TPT2\compDiodos.asc

Warning: Multiple definitions of model "1n4148" Type: Diode
Direct Newton iteration for .op point succeeded.

Date: Fri Apr 01 13:21:29 2022
Total elapsed time: 0.156 seconds.

tnom = 27
temp = 27
method = modified trap
totiter = 2812
traniter = 2801
tranpoints = 1315
accept = 1262
rejected = 53
matrix size = 18
fillins = 0
solver = Normal
Matrix Compiler1: 620 bytes object code size  0.8/0.7/[0.4]
Matrix Compiler2: off  [0.5]/1.0/1.6

