Circuit: * Z:\UNC\2022\powerElectronics\TPT6\sim\tiristores.asc

WARNING: Node N003 is floating.

WARNING: Less than two connections to node N001.  This node is used by V3.
WARNING: Less than two connections to node N003.  This node is used by V3.
Direct Newton iteration for .op point succeeded.

Date: Fri May 06 08:59:25 2022
Total elapsed time: 1.076 seconds.

tnom = 27
temp = 27
method = modified trap
totiter = 25840
traniter = 25817
tranpoints = 8118
accept = 7016
rejected = 1102
matrix size = 96
fillins = 74
solver = Normal
Thread vector: 18.8/13.0[2] 3.9/3.4[2] 8.0/5.0[2] 1.5/2.4[1]  2592/500
Matrix Compiler1: 6.69 KB object code size  3.5/3.3/[1.2]
Matrix Compiler2: off  [1.5]/2.1/10.9

