Circuit: * Z:\UNC\2021\digital3\finalLab\preamp.asc

WARNING: Less than two connections to node NC_01.  This node is used by R5.
WARNING: Less than two connections to node VEE.  This node is used by V3.
Direct Newton iteration for .op point succeeded.

Date: Thu Oct 28 18:15:54 2021
Total elapsed time: 0.060 seconds.

tnom = 27
temp = 27
method = trap
totiter = 17
traniter = 0
tranpoints = 0
accept = 0
rejected = 0
matrix size = 33
fillins = 45
solver = Normal
Matrix Compiler1:     213 opcodes
Matrix Compiler2: 3.22 KB object code size
