Circuit: * Z:\UNC\2022\analogElectronics3\lab1\acopleLC.asc

WARNING: Node N006 is floating.
WARNING: Node N009 is floating.
WARNING: Node N010 is floating.

WARNING: Less than two connections to node N001.  This node is used by R3.
WARNING: Less than two connections to node N006.  This node is used by R6.
WARNING: Less than two connections to node N004.  This node is used by R9.

Date: Sun Mar 27 16:46:45 2022
Total elapsed time: 0.040 seconds.

tnom = 27
temp = 27
method = trap
totiter = 0
traniter = 0
tranpoints = 0
accept = 0
rejected = 0
matrix size = 14
fillins = 1
solver = Normal

