Circuit: * Z:\UNC\2022\analogElectronics3\lab1\acopleLC.asc

WARNING: Less than two connections to node N001.  This node is used by R3.
WARNING: Less than two connections to node N003.  This node is used by R6.

Date: Sat Mar 26 16:09:15 2022
Total elapsed time: 0.042 seconds.

tnom = 27
temp = 27
method = trap
totiter = 0
traniter = 0
tranpoints = 0
accept = 0
rejected = 0
matrix size = 9
fillins = 1
solver = Normal

