Questionable use of curly braces in "b1 n009 0 v=v(in) laplace={1-1/(s*(s+1))}"
    Error: undefined symbol in: "1-1/([s]*(s+1))"
Circuit: * Z:\sintesis\filtros\filt.asc

B1: Trouble evaluating Laplacian at DC.
WARNING: Less than two connections to node N009.  This node is used by B1.
Direct Newton iteration for .op point succeeded.

Date: Thu Jul 07 14:37:36 2022
Total elapsed time: 0.105 seconds.

tnom = 27
temp = 27
method = trap
totiter = 4
traniter = 0
tranpoints = 0
accept = 0
rejected = 0
matrix size = 17
fillins = 6
solver = Normal
Matrix Compiler1:      57 opcodes
Matrix Compiler2: 1.38 KB object code size
