Questionable use of curly braces in "b1 test 0  v=v(in) laplace = {((s*{k0})/(s**2+{a0}*s+{b0}))*((s*{k1})/(s**2+{a1}*s+{b1}))}"
    Error: undefined symbol in: "(([s]*(k0))/(s**2+(a0)*s+(b0)))*((s*(k1))/(s**2+(a1)*s+(b1)))"
Circuit: * Z:\sintesis\lab4\negFeddbackBP.asc

WARNING: Less than two connections to node TEST.  This node is used by B1.
Direct Newton iteration for .op point succeeded.

Date: Mon Jul 18 14:14:35 2022
Total elapsed time: 0.072 seconds.

tnom = 27
temp = 27
method = trap
totiter = 4
traniter = 0
tranpoints = 0
accept = 0
rejected = 0
matrix size = 15
fillins = 0
solver = Normal
Matrix Compiler1:      41 opcodes
Matrix Compiler2: 1.07 KB object code size
