Circuit: * Z:\UNC\2021\digital3\finalLab\preamp.asc

WARNING: Node NC_01 is floating.

WARNING: Less than two connections to node NC_01.  This node is used by C2.
Direct Newton iteration for .op point succeeded.

Date: Sun Oct 31 21:02:06 2021
Total elapsed time: 0.107 seconds.

tnom = 27
temp = 27
method = modified trap
totiter = 2095
traniter = 2082
tranpoints = 1042
accept = 1042
rejected = 0
matrix size = 33
fillins = 48
solver = Normal
Matrix Compiler1: 4.19 KB object code size  2.3/1.6/[0.8]
Matrix Compiler2: off  [1.0]/1.4/3.0

